version 2
run canvas-0-20210519-14:06:53-22763
attr configname canvas
attr datetime 20210519-14:06:53
attr experiment canvas
attr inifile omnetpp.ini
attr iterationvars ""
attr iterationvarsf ""
attr measurement ""
attr network RoutingScenario
attr processid 22763
attr repetition 0
attr replication #0
attr resultdir results
attr runnumber 0
attr seedset 0
param *.visualizer.*.obstacleLossVisualizer.displayIntersections true
param *.visualizer.*.obstacleLossVisualizer.displayFaceNormalVectors true
param *.visualizer.*.obstacleLossVisualizer.intersectionLineColor "\"yellow\""
param *.visualizer.*.mediumVisualizer.signalPropagationAnimationSpeed 500/3e8
param *.visualizer.*.mediumVisualizer.signalTransmissionAnimationSpeed 50000/3e8
param *.visualizer.*.mediumVisualizer.displaySignals true
param *.visualizer.canvasVisualizer.mediumVisualizer.displaySignalDepartures false
param *.visualizer.canvasVisualizer.mediumVisualizer.displaySignalArrivals false
param *.visualizer.*.physicalLinkVisualizer.displayLinks true
param *.visualizer.*.mobilityVisualizer.displayPositions true
param *.visualizer.*.mobilityVisualizer.displayOrientations true
param *.visualizer.*.mobilityVisualizer.displayVelocities true
param *.visualizer.*.mobilityVisualizer.displayMovementTrails true
param *.visualizer.*.mobilityVisualizer.moduleFilter "\"**.antenna.mobility\""
param *.node[2].router "\"AodvAttackerRSA\""
param *.node[7].router "\"AodvAttackerRSA\""
param *.node[12].router "\"AodvAttackerRSA\""
param *.node[*].router "\"SecureAodv\""
param *.node[*].numApps 1
param *.node[*].app[0].typename "\"UdpBasicApp\""
param *.node[*].app[0].destAddresses "\"node[*]\""
param *.node[*].app[0].destPort 5000
param *.node[*].app[0].messageLength 1000B
param *.node[*].app[0].sendInterval exponential(12ms)
param *.node[*].app[0].packetName "\"UDPData\""
param *.node[*].wlan[0].opMode "\"p\""
param *.node[*].wlan[0].radio.bandName "\"5.9 GHz\""
param *.node[*].wlan[0].radio.channelNumber 3
param *.node[*].wlan[0].radio.transmitter.power 20mW
param *.node[*].wlan[0].radio.bandwidth "10 MHz"
param *.node[*].ipv4.configurator.typename "\"HostAutoConfigurator\""
param *.node[*].ipv4.configurator.interfaces "\"wlan0\""
param *.node[*].ipv4.configurator.mcastGroups "\"224.0.0.1\""
param *.node[*].mobility.typename "\"VeinsInetMobility\""
param *.node[*].mobility.speed 20mps
param *.manager.updateInterval 0.1s
param *.manager.host "\"localhost\""
param *.manager.port 9999
param *.manager.autoShutdown true
param *.manager.launchConfig "xmldoc(\"downtown.launchd.xml\")"
param *.manager.moduleType "\"vanetnetsec.veins_inet.VeinsInetRoutingCar\""
param *.physicalEnvironment.config "xmldoc(\"obstacles.xml\")"
param *.radioMedium.obstacleLoss.typename "\"IdealObstacleLoss\""

vector 0 RoutingScenario.node[0].wlan[0].radio radioMode:vector ETV
attr interpolationmode sample-hold
attr source radioModeChanged
attr title "Radio mode, vector"
vector 1 RoutingScenario.node[0].wlan[0].radio radioChannel:vector ETV
attr interpolationmode sample-hold
attr source radioChannelChanged
attr title "Radio channel, vector"
vector 2 RoutingScenario.node[0].wlan[0].radio receptionState:vector ETV
attr interpolationmode sample-hold
attr source receptionStateChanged
attr title "Radio reception state, vector"
vector 3 RoutingScenario.node[0].wlan[0].mac.dcf.recoveryProcedure contentionWindowChanged:vector ETV
attr interpolationmode sample-hold
attr title "contention window, vector"
vector 4 RoutingScenario.node[0].app[0] packetSent:vector(packetBytes) ETV
attr interpolationmode none
attr source packetSent
attr title "packets sent, vector(packetBytes)"
vector 5 RoutingScenario.node[0].udp packetSent:vector(packetBytes) ETV
attr interpolationmode none
attr source packetSent
attr title "packets sent, vector(packetBytes)"
vector 6 RoutingScenario.node[0].lo[0].lo rcvdPkFromHl:vector(packetBytes) ETV
attr interpolationmode none
attr source packetReceivedFromUpper
attr title "packets received from higher layer, vector(packetBytes)"
vector 7 RoutingScenario.node[0].lo[0].lo passedUpPk:vector(packetBytes) ETV
attr interpolationmode none
attr source packetSentToUpper
attr title "packets passed to higher layer, vector(packetBytes)"
vector 8 RoutingScenario.node[0].udp packetReceived:vector(packetBytes) ETV
attr interpolationmode none
attr source packetReceived
attr title "packets received, vector(packetBytes)"
vector 9 RoutingScenario.node[0].udp droppedPkWrongPort:vector(count) ETV
attr interpolationmode none
attr source packetDropReasonIsNoPortFound(packetDropped)
attr title "packets dropped (wrong port), vector(count)"
vector 10 RoutingScenario.node[1].wlan[0].radio radioMode:vector ETV
attr interpolationmode sample-hold
attr source radioModeChanged
attr title "Radio mode, vector"
vector 11 RoutingScenario.node[1].wlan[0].radio radioChannel:vector ETV
attr interpolationmode sample-hold
attr source radioChannelChanged
attr title "Radio channel, vector"
vector 12 RoutingScenario.node[1].wlan[0].radio receptionState:vector ETV
attr interpolationmode sample-hold
attr source receptionStateChanged
attr title "Radio reception state, vector"
vector 13 RoutingScenario.node[1].wlan[0].mac.dcf.recoveryProcedure contentionWindowChanged:vector ETV
attr interpolationmode sample-hold
attr title "contention window, vector"
vector 14 RoutingScenario.node[1].app[0] packetSent:vector(packetBytes) ETV
attr interpolationmode none
attr source packetSent
attr title "packets sent, vector(packetBytes)"
vector 15 RoutingScenario.node[1].udp packetSent:vector(packetBytes) ETV
attr interpolationmode none
attr source packetSent
attr title "packets sent, vector(packetBytes)"
vector 16 RoutingScenario.node[1].wlan[0].mac packetReceivedFromUpper:vector(packetBytes) ETV
attr interpolationmode none
attr title "packets received from upper layer, vector(packetBytes)"
vector 17 RoutingScenario.node[1].wlan[0].mac.dcf.channelAccess.pendingQueue packetPushed:vector(packetBytes) ETV
attr interpolationmode none
attr title "packet pushed, vector(packetBytes)"
vector 18 RoutingScenario.node[1].wlan[0].mac.dcf.channelAccess.pendingQueue queueLength:vector ETV
attr interpolationmode sample-hold
attr source "count(packetPushed) - count(packetPopped) - count(packetRemoved) - count(packetDropped)"
attr title "queue length, vector"
vector 19 RoutingScenario.node[1].wlan[0].mac.dcf.channelAccess.contention backoffPeriodGenerated:vector ETV
attr interpolationmode none
attr title "backoff periods, vector"
vector 20 RoutingScenario.node[1].wlan[0].mac.dcf.channelAccess.contention backoffActive:vector ETV
attr interpolationmode sample-hold
attr source count(backoffStarted)-count(backoffStopped)
attr title "backoff active, vector"
vector 21 RoutingScenario.node[1].wlan[0].mac.dcf.channelAccess.pendingQueue packetPopped:vector(packetBytes) ETV
attr interpolationmode none
attr title "packet popped, vector(packetBytes)"
vector 22 RoutingScenario.node[1].wlan[0].mac.dcf.channelAccess.pendingQueue queueingTime:vector ETV
attr interpolationmode none
attr source queueingTime(packetPopped)
attr title "queueing times, vector"
attr unit s
vector 23 RoutingScenario.node[1].wlan[0].mac.dcf.channelAccess.inProgressFrames queueLength:vector ETV
attr interpolationmode sample-hold
attr source "count(packetEnqueued) - count(packetDequeued)"
attr title "queue length, vector"
vector 24 RoutingScenario.node[1].wlan[0].mac.dcf datarateSelected:vector ETV
attr interpolationmode none
attr title "datarates selected, vector"
vector 25 RoutingScenario.node[1].wlan[0].mac packetSentToLower:vector(packetBytes) ETV
attr interpolationmode none
attr title "packets sent to lower layer, vector(packetBytes)"
vector 26 RoutingScenario.node[1].wlan[0].mac.dcf frameSequenceActive:vector ETV
attr interpolationmode sample-hold
attr source count(frameSequenceStarted)-count(frameSequenceFinished)
attr title "frame sequence active, vector"
vector 27 RoutingScenario.node[1].wlan[0].radio transmissionState:vector ETV
attr interpolationmode sample-hold
attr source transmissionStateChanged
attr title "Radio transmission state, vector"
vector 28 RoutingScenario.node[1].wlan[0].mac.dcf packetSentToPeer:vector(packetBytes) ETV
attr interpolationmode none
attr title "packets sent, vector(packetBytes)"
vector 29 RoutingScenario.node[1].wlan[0].mac.dcf packetSentToPeerMulticast:vector(packetBytes) ETV
attr interpolationmode none
attr source ieee80211Multicast(packetSentToPeer)
attr title "packets sent: multicast, vector(packetBytes)"
vector 30 RoutingScenario.node[1].wlan[0].mac.dcf packetSentToPeerBroadcast:vector(packetBytes) ETV
attr interpolationmode none
attr source ieee80211Broadcast(packetSentToPeer)
attr title "packets sent: broadcast , vector(packetBytes)"
vector 31 RoutingScenario.node[1].wlan[0].mac.dcf packetSentToPeerWithoutRetry:vector(packetBytes) ETV
attr interpolationmode none
attr source ieee80211NotRetry(packetSentToPeer)
attr title "packets sent: without retry, vector(packetBytes)"
vector 32 RoutingScenario.node[1].wlan[0].mac.dcf.channelAccess.inProgressFrames queueingTime:vector ETV
attr interpolationmode none
attr source queueingTime(packetDequeued)
attr title "queueing times, vector"
vector 33 RoutingScenario.node[2].wlan[0].radio radioMode:vector ETV
attr interpolationmode sample-hold
attr source radioModeChanged
attr title "Radio mode, vector"
vector 34 RoutingScenario.node[2].wlan[0].radio radioChannel:vector ETV
attr interpolationmode sample-hold
attr source radioChannelChanged
attr title "Radio channel, vector"
vector 35 RoutingScenario.node[2].wlan[0].radio receptionState:vector ETV
attr interpolationmode sample-hold
attr source receptionStateChanged
attr title "Radio reception state, vector"
vector 36 RoutingScenario.node[2].wlan[0].mac.dcf.recoveryProcedure contentionWindowChanged:vector ETV
attr interpolationmode sample-hold
attr title "contention window, vector"
vector 37 RoutingScenario.node[2].app[0] packetSent:vector(packetBytes) ETV
attr interpolationmode none
attr source packetSent
attr title "packets sent, vector(packetBytes)"
vector 38 RoutingScenario.node[2].udp packetSent:vector(packetBytes) ETV
attr interpolationmode none
attr source packetSent
attr title "packets sent, vector(packetBytes)"
vector 39 RoutingScenario.node[2].wlan[0].mac packetReceivedFromUpper:vector(packetBytes) ETV
attr interpolationmode none
attr title "packets received from upper layer, vector(packetBytes)"
vector 40 RoutingScenario.node[2].wlan[0].mac.dcf.channelAccess.pendingQueue packetPushed:vector(packetBytes) ETV
attr interpolationmode none
attr title "packet pushed, vector(packetBytes)"
vector 41 RoutingScenario.node[2].wlan[0].mac.dcf.channelAccess.pendingQueue queueLength:vector ETV
attr interpolationmode sample-hold
attr source "count(packetPushed) - count(packetPopped) - count(packetRemoved) - count(packetDropped)"
attr title "queue length, vector"
vector 42 RoutingScenario.node[2].wlan[0].mac.dcf.channelAccess.contention backoffPeriodGenerated:vector ETV
attr interpolationmode none
attr title "backoff periods, vector"
vector 43 RoutingScenario.node[2].wlan[0].mac.dcf.channelAccess.contention backoffActive:vector ETV
attr interpolationmode sample-hold
attr source count(backoffStarted)-count(backoffStopped)
attr title "backoff active, vector"
vector 44 RoutingScenario.node[2].wlan[0].mac.dcf.channelAccess.pendingQueue packetPopped:vector(packetBytes) ETV
attr interpolationmode none
attr title "packet popped, vector(packetBytes)"
vector 45 RoutingScenario.node[2].wlan[0].mac.dcf.channelAccess.pendingQueue queueingTime:vector ETV
attr interpolationmode none
attr source queueingTime(packetPopped)
attr title "queueing times, vector"
attr unit s
vector 46 RoutingScenario.node[2].wlan[0].mac.dcf.channelAccess.inProgressFrames queueLength:vector ETV
attr interpolationmode sample-hold
attr source "count(packetEnqueued) - count(packetDequeued)"
attr title "queue length, vector"
vector 47 RoutingScenario.node[2].wlan[0].mac.dcf datarateSelected:vector ETV
attr interpolationmode none
attr title "datarates selected, vector"
vector 48 RoutingScenario.node[2].wlan[0].mac packetSentToLower:vector(packetBytes) ETV
attr interpolationmode none
attr title "packets sent to lower layer, vector(packetBytes)"
vector 49 RoutingScenario.node[2].wlan[0].mac.dcf frameSequenceActive:vector ETV
attr interpolationmode sample-hold
attr source count(frameSequenceStarted)-count(frameSequenceFinished)
attr title "frame sequence active, vector"
vector 50 RoutingScenario.node[2].wlan[0].radio transmissionState:vector ETV
attr interpolationmode sample-hold
attr source transmissionStateChanged
attr title "Radio transmission state, vector"
vector 51 RoutingScenario.node[2].wlan[0].mac.dcf packetSentToPeer:vector(packetBytes) ETV
attr interpolationmode none
attr title "packets sent, vector(packetBytes)"
vector 52 RoutingScenario.node[2].wlan[0].mac.dcf packetSentToPeerMulticast:vector(packetBytes) ETV
attr interpolationmode none
attr source ieee80211Multicast(packetSentToPeer)
attr title "packets sent: multicast, vector(packetBytes)"
vector 53 RoutingScenario.node[2].wlan[0].mac.dcf packetSentToPeerBroadcast:vector(packetBytes) ETV
attr interpolationmode none
attr source ieee80211Broadcast(packetSentToPeer)
attr title "packets sent: broadcast , vector(packetBytes)"
vector 54 RoutingScenario.node[2].wlan[0].mac.dcf packetSentToPeerWithoutRetry:vector(packetBytes) ETV
attr interpolationmode none
attr source ieee80211NotRetry(packetSentToPeer)
attr title "packets sent: without retry, vector(packetBytes)"
vector 55 RoutingScenario.node[2].wlan[0].mac.dcf.channelAccess.inProgressFrames queueingTime:vector ETV
attr interpolationmode none
attr source queueingTime(packetDequeued)
attr title "queueing times, vector"
vector 56 RoutingScenario.node[0].wlan[0].mac packetReceivedFromLower:vector(packetBytes) ETV
attr interpolationmode none
attr title "packets received from lower layer, vector(packetBytes)"
vector 57 RoutingScenario.node[0].wlan[0].mac.dcf packetReceivedFromPeer:vector(packetBytes) ETV
attr interpolationmode none
attr title "packets received, vector(packetBytes)"
vector 58 RoutingScenario.node[0].wlan[0].mac.dcf packetReceivedFromPeerMulticast:vector(packetBytes) ETV
attr interpolationmode none
attr source ieee80211Multicast(packetReceivedFromPeer)
attr title "packets received: multicast, vector(packetBytes)"
vector 59 RoutingScenario.node[0].wlan[0].mac.dcf packetReceivedFromPeerBroadcast:vector(packetBytes) ETV
attr interpolationmode none
attr source ieee80211Broadcast(packetReceivedFromPeer)
attr title "packets received: broadcast, vector(packetBytes)"
vector 60 RoutingScenario.node[0].wlan[0].mac.dcf packetReceivedFromPeerWithoutRetry:vector(packetBytes) ETV
attr interpolationmode none
attr source ieee80211NotRetry(packetReceivedFromPeer)
attr title "packets received: without retry, vector(packetBytes)"
vector 61 RoutingScenario.node[0].wlan[0].mac packetSentToUpper:vector(packetBytes) ETV
attr interpolationmode none
attr title "packets sent to upper layer, vector(packetBytes)"
vector 62 RoutingScenario.node[0].udp passedUpPk:vector(count) ETV
attr interpolationmode none
attr source packetSentToUpper
attr title "packets passed up, vector(count)"
vector 63 RoutingScenario.node[3].wlan[0].radio radioMode:vector ETV
attr interpolationmode sample-hold
attr source radioModeChanged
attr title "Radio mode, vector"
vector 64 RoutingScenario.node[3].wlan[0].radio radioChannel:vector ETV
attr interpolationmode sample-hold
attr source radioChannelChanged
attr title "Radio channel, vector"
vector 65 RoutingScenario.node[3].wlan[0].radio receptionState:vector ETV
attr interpolationmode sample-hold
attr source receptionStateChanged
attr title "Radio reception state, vector"
vector 66 RoutingScenario.node[3].wlan[0].mac.dcf.recoveryProcedure contentionWindowChanged:vector ETV
attr interpolationmode sample-hold
attr title "contention window, vector"
vector 67 RoutingScenario.node[3].app[0] packetSent:vector(packetBytes) ETV
attr interpolationmode none
attr source packetSent
attr title "packets sent, vector(packetBytes)"
vector 68 RoutingScenario.node[3].udp packetSent:vector(packetBytes) ETV
attr interpolationmode none
attr source packetSent
attr title "packets sent, vector(packetBytes)"
vector 69 RoutingScenario.node[3].wlan[0].mac packetReceivedFromUpper:vector(packetBytes) ETV
attr interpolationmode none
attr title "packets received from upper layer, vector(packetBytes)"
vector 70 RoutingScenario.node[3].wlan[0].mac.dcf.channelAccess.pendingQueue packetPushed:vector(packetBytes) ETV
attr interpolationmode none
attr title "packet pushed, vector(packetBytes)"
vector 71 RoutingScenario.node[3].wlan[0].mac.dcf.channelAccess.pendingQueue queueLength:vector ETV
attr interpolationmode sample-hold
attr source "count(packetPushed) - count(packetPopped) - count(packetRemoved) - count(packetDropped)"
attr title "queue length, vector"
vector 72 RoutingScenario.node[3].wlan[0].mac.dcf.channelAccess.contention backoffPeriodGenerated:vector ETV
attr interpolationmode none
attr title "backoff periods, vector"
vector 73 RoutingScenario.node[3].wlan[0].mac.dcf.channelAccess.contention backoffActive:vector ETV
attr interpolationmode sample-hold
attr source count(backoffStarted)-count(backoffStopped)
attr title "backoff active, vector"
vector 74 RoutingScenario.node[3].wlan[0].mac.dcf.channelAccess.pendingQueue packetPopped:vector(packetBytes) ETV
attr interpolationmode none
attr title "packet popped, vector(packetBytes)"
vector 75 RoutingScenario.node[3].wlan[0].mac.dcf.channelAccess.pendingQueue queueingTime:vector ETV
attr interpolationmode none
attr source queueingTime(packetPopped)
attr title "queueing times, vector"
attr unit s
vector 76 RoutingScenario.node[3].wlan[0].mac.dcf.channelAccess.inProgressFrames queueLength:vector ETV
attr interpolationmode sample-hold
attr source "count(packetEnqueued) - count(packetDequeued)"
attr title "queue length, vector"
vector 77 RoutingScenario.node[3].wlan[0].mac.dcf datarateSelected:vector ETV
attr interpolationmode none
attr title "datarates selected, vector"
vector 78 RoutingScenario.node[3].wlan[0].mac packetSentToLower:vector(packetBytes) ETV
attr interpolationmode none
attr title "packets sent to lower layer, vector(packetBytes)"
vector 79 RoutingScenario.node[3].wlan[0].mac.dcf frameSequenceActive:vector ETV
attr interpolationmode sample-hold
attr source count(frameSequenceStarted)-count(frameSequenceFinished)
attr title "frame sequence active, vector"
vector 80 RoutingScenario.node[3].wlan[0].radio transmissionState:vector ETV
attr interpolationmode sample-hold
attr source transmissionStateChanged
attr title "Radio transmission state, vector"
vector 81 RoutingScenario.node[3].wlan[0].mac.dcf packetSentToPeer:vector(packetBytes) ETV
attr interpolationmode none
attr title "packets sent, vector(packetBytes)"
vector 82 RoutingScenario.node[3].wlan[0].mac.dcf packetSentToPeerMulticast:vector(packetBytes) ETV
attr interpolationmode none
attr source ieee80211Multicast(packetSentToPeer)
attr title "packets sent: multicast, vector(packetBytes)"
vector 83 RoutingScenario.node[3].wlan[0].mac.dcf packetSentToPeerBroadcast:vector(packetBytes) ETV
attr interpolationmode none
attr source ieee80211Broadcast(packetSentToPeer)
attr title "packets sent: broadcast , vector(packetBytes)"
vector 84 RoutingScenario.node[3].wlan[0].mac.dcf packetSentToPeerWithoutRetry:vector(packetBytes) ETV
attr interpolationmode none
attr source ieee80211NotRetry(packetSentToPeer)
attr title "packets sent: without retry, vector(packetBytes)"
vector 85 RoutingScenario.node[3].wlan[0].mac.dcf.channelAccess.inProgressFrames queueingTime:vector ETV
attr interpolationmode none
attr source queueingTime(packetDequeued)
attr title "queueing times, vector"
vector 86 RoutingScenario.node[2].wlan[0].mac packetReceivedFromLower:vector(packetBytes) ETV
attr interpolationmode none
attr title "packets received from lower layer, vector(packetBytes)"
vector 87 RoutingScenario.node[2].wlan[0].mac.dcf packetReceivedFromPeer:vector(packetBytes) ETV
attr interpolationmode none
attr title "packets received, vector(packetBytes)"
vector 88 RoutingScenario.node[2].wlan[0].mac.dcf packetReceivedFromPeerMulticast:vector(packetBytes) ETV
attr interpolationmode none
attr source ieee80211Multicast(packetReceivedFromPeer)
attr title "packets received: multicast, vector(packetBytes)"
vector 89 RoutingScenario.node[2].wlan[0].mac.dcf packetReceivedFromPeerBroadcast:vector(packetBytes) ETV
attr interpolationmode none
attr source ieee80211Broadcast(packetReceivedFromPeer)
attr title "packets received: broadcast, vector(packetBytes)"
vector 90 RoutingScenario.node[2].wlan[0].mac.dcf packetReceivedFromPeerWithoutRetry:vector(packetBytes) ETV
attr interpolationmode none
attr source ieee80211NotRetry(packetReceivedFromPeer)
attr title "packets received: without retry, vector(packetBytes)"
vector 91 RoutingScenario.node[2].wlan[0].mac packetSentToUpper:vector(packetBytes) ETV
attr interpolationmode none
attr title "packets sent to upper layer, vector(packetBytes)"
vector 92 RoutingScenario.node[2].udp packetReceived:vector(packetBytes) ETV
attr interpolationmode none
attr source packetReceived
attr title "packets received, vector(packetBytes)"
vector 93 RoutingScenario.node[2].udp passedUpPk:vector(count) ETV
attr interpolationmode none
attr source packetSentToUpper
attr title "packets passed up, vector(count)"
vector 94 RoutingScenario.node[2].ipv4.arp arpRequestSent:vector(packetBytes) ETV
attr source arpRequestSent
attr title "ARP request sent, vector(packetBytes)"
vector 95 RoutingScenario.node[3].wlan[0].mac packetReceivedFromLower:vector(packetBytes) ETV
attr interpolationmode none
attr title "packets received from lower layer, vector(packetBytes)"
vector 96 RoutingScenario.node[3].wlan[0].mac.dcf packetReceivedFromPeer:vector(packetBytes) ETV
attr interpolationmode none
attr title "packets received, vector(packetBytes)"
vector 97 RoutingScenario.node[3].wlan[0].mac.dcf packetReceivedFromPeerMulticast:vector(packetBytes) ETV
attr interpolationmode none
attr source ieee80211Multicast(packetReceivedFromPeer)
attr title "packets received: multicast, vector(packetBytes)"
vector 98 RoutingScenario.node[3].wlan[0].mac.dcf packetReceivedFromPeerBroadcast:vector(packetBytes) ETV
attr interpolationmode none
attr source ieee80211Broadcast(packetReceivedFromPeer)
attr title "packets received: broadcast, vector(packetBytes)"
vector 99 RoutingScenario.node[3].wlan[0].mac.dcf packetReceivedFromPeerWithoutRetry:vector(packetBytes) ETV
attr interpolationmode none
attr source ieee80211NotRetry(packetReceivedFromPeer)
attr title "packets received: without retry, vector(packetBytes)"
vector 100 RoutingScenario.node[3].wlan[0].mac packetSentToUpper:vector(packetBytes) ETV
attr interpolationmode none
attr title "packets sent to upper layer, vector(packetBytes)"
vector 101 RoutingScenario.node[3].ipv4.arp arpReplySent:vector(packetBytes) ETV
attr source arpReplySent
attr title "ARP replies sent, vector(packetBytes)"
vector 102 RoutingScenario.node[3].wlan[0].mac.dcf packetSentToPeerUnicast:vector(packetBytes) ETV
attr interpolationmode none
attr source ieee80211Unicast(packetSentToPeer)
attr title "packets sent: unicast, vector(packetBytes)"
vector 103 RoutingScenario.node[3].wlan[0].mac.rx nav:vector ETV
attr interpolationmode linear
attr source navChanged
attr title "network allocation vector, vector"
vector 104 RoutingScenario.node[2].wlan[0].mac.dcf packetReceivedFromPeerUnicast:vector(packetBytes) ETV
attr interpolationmode none
attr source ieee80211Unicast(packetReceivedFromPeer)
attr title "packets received: unicast, vector(packetBytes)"
vector 105 RoutingScenario.node[2].wlan[0].mac.dcf packetSentToPeerUnicast:vector(packetBytes) ETV
attr interpolationmode none
attr source ieee80211Unicast(packetSentToPeer)
attr title "packets sent: unicast, vector(packetBytes)"
vector 106 RoutingScenario.node[3].wlan[0].mac.dcf packetReceivedFromPeerUnicast:vector(packetBytes) ETV
attr interpolationmode none
attr source ieee80211Unicast(packetReceivedFromPeer)
attr title "packets received: unicast, vector(packetBytes)"
vector 107 RoutingScenario.node[0].wlan[0].mac.dcf packetDrop:vector(packetBytes) ETV
attr interpolationmode none
attr source packetDropped
attr title "packet drops, vector(packetBytes)"
vector 108 RoutingScenario.node[0].wlan[0].mac.dcf packetDropNotAddressedToUs:vector(packetBytes) ETV
attr interpolationmode none
attr source packetDropReasonIsNotAddressedToUs(packetDropped)
attr title "packet drops: not addressed to us, vector(packetBytes)"
vector 109 RoutingScenario.node[0].wlan[0].mac packetDrop:vector(packetBytes) ETV
attr interpolationmode none
attr source packetDropped
attr title "packet drops, vector(packetBytes)"
vector 110 RoutingScenario.node[0].wlan[0].mac packetDropNotAddressedToUs:vector(packetBytes) ETV
attr interpolationmode none
attr source packetDropReasonIsNotAddressedToUs(packetDropped)
attr title "packet drops: not addressed to us, vector(packetBytes)"
vector 111 RoutingScenario.node[2].wlan[0].mac.rx nav:vector ETV
attr interpolationmode linear
attr source navChanged
attr title "network allocation vector, vector"
vector 112 RoutingScenario.node[3].udp packetReceived:vector(packetBytes) ETV
attr interpolationmode none
attr source packetReceived
attr title "packets received, vector(packetBytes)"
vector 113 RoutingScenario.node[3].udp passedUpPk:vector(count) ETV
attr interpolationmode none
attr source packetSentToUpper
attr title "packets passed up, vector(count)"
vector 114 RoutingScenario.node[0].wlan[0].mac.rx nav:vector ETV
attr interpolationmode linear
attr source navChanged
attr title "network allocation vector, vector"
vector 115 RoutingScenario.node[4].wlan[0].radio radioMode:vector ETV
attr interpolationmode sample-hold
attr source radioModeChanged
attr title "Radio mode, vector"
vector 116 RoutingScenario.node[4].wlan[0].radio radioChannel:vector ETV
attr interpolationmode sample-hold
attr source radioChannelChanged
attr title "Radio channel, vector"
vector 117 RoutingScenario.node[4].wlan[0].radio receptionState:vector ETV
attr interpolationmode sample-hold
attr source receptionStateChanged
attr title "Radio reception state, vector"
vector 118 RoutingScenario.node[4].wlan[0].mac.dcf.recoveryProcedure contentionWindowChanged:vector ETV
attr interpolationmode sample-hold
attr title "contention window, vector"
vector 119 RoutingScenario.node[4].app[0] packetSent:vector(packetBytes) ETV
attr interpolationmode none
attr source packetSent
attr title "packets sent, vector(packetBytes)"
vector 120 RoutingScenario.node[4].udp packetSent:vector(packetBytes) ETV
attr interpolationmode none
attr source packetSent
attr title "packets sent, vector(packetBytes)"
vector 121 RoutingScenario.node[4].wlan[0].mac packetReceivedFromUpper:vector(packetBytes) ETV
attr interpolationmode none
attr title "packets received from upper layer, vector(packetBytes)"
vector 122 RoutingScenario.node[4].wlan[0].mac.dcf.channelAccess.pendingQueue packetPushed:vector(packetBytes) ETV
attr interpolationmode none
attr title "packet pushed, vector(packetBytes)"
vector 123 RoutingScenario.node[4].wlan[0].mac.dcf.channelAccess.pendingQueue queueLength:vector ETV
attr interpolationmode sample-hold
attr source "count(packetPushed) - count(packetPopped) - count(packetRemoved) - count(packetDropped)"
attr title "queue length, vector"
vector 124 RoutingScenario.node[4].wlan[0].mac.dcf.channelAccess.contention backoffPeriodGenerated:vector ETV
attr interpolationmode none
attr title "backoff periods, vector"
vector 125 RoutingScenario.node[4].wlan[0].mac.dcf.channelAccess.contention backoffActive:vector ETV
attr interpolationmode sample-hold
attr source count(backoffStarted)-count(backoffStopped)
attr title "backoff active, vector"
vector 126 RoutingScenario.node[4].wlan[0].mac.dcf.channelAccess.pendingQueue packetPopped:vector(packetBytes) ETV
attr interpolationmode none
attr title "packet popped, vector(packetBytes)"
vector 127 RoutingScenario.node[4].wlan[0].mac.dcf.channelAccess.pendingQueue queueingTime:vector ETV
attr interpolationmode none
attr source queueingTime(packetPopped)
attr title "queueing times, vector"
attr unit s
vector 128 RoutingScenario.node[4].wlan[0].mac.dcf.channelAccess.inProgressFrames queueLength:vector ETV
attr interpolationmode sample-hold
attr source "count(packetEnqueued) - count(packetDequeued)"
attr title "queue length, vector"
vector 129 RoutingScenario.node[4].wlan[0].mac.dcf datarateSelected:vector ETV
attr interpolationmode none
attr title "datarates selected, vector"
vector 130 RoutingScenario.node[4].wlan[0].mac packetSentToLower:vector(packetBytes) ETV
attr interpolationmode none
attr title "packets sent to lower layer, vector(packetBytes)"
vector 131 RoutingScenario.node[4].wlan[0].mac.dcf frameSequenceActive:vector ETV
attr interpolationmode sample-hold
attr source count(frameSequenceStarted)-count(frameSequenceFinished)
attr title "frame sequence active, vector"
vector 132 RoutingScenario.node[4].wlan[0].radio transmissionState:vector ETV
attr interpolationmode sample-hold
attr source transmissionStateChanged
attr title "Radio transmission state, vector"
vector 133 RoutingScenario.node[4].wlan[0].mac.dcf packetSentToPeer:vector(packetBytes) ETV
attr interpolationmode none
attr title "packets sent, vector(packetBytes)"
vector 134 RoutingScenario.node[4].wlan[0].mac.dcf packetSentToPeerMulticast:vector(packetBytes) ETV
attr interpolationmode none
attr source ieee80211Multicast(packetSentToPeer)
attr title "packets sent: multicast, vector(packetBytes)"
vector 135 RoutingScenario.node[4].wlan[0].mac.dcf packetSentToPeerBroadcast:vector(packetBytes) ETV
attr interpolationmode none
attr source ieee80211Broadcast(packetSentToPeer)
attr title "packets sent: broadcast , vector(packetBytes)"
vector 136 RoutingScenario.node[4].wlan[0].mac.dcf packetSentToPeerWithoutRetry:vector(packetBytes) ETV
attr interpolationmode none
attr source ieee80211NotRetry(packetSentToPeer)
attr title "packets sent: without retry, vector(packetBytes)"
vector 137 RoutingScenario.node[4].wlan[0].mac.dcf.channelAccess.inProgressFrames queueingTime:vector ETV
attr interpolationmode none
attr source queueingTime(packetDequeued)
attr title "queueing times, vector"
vector 138 RoutingScenario.node[5].wlan[0].radio radioMode:vector ETV
attr interpolationmode sample-hold
attr source radioModeChanged
attr title "Radio mode, vector"
vector 139 RoutingScenario.node[5].wlan[0].radio radioChannel:vector ETV
attr interpolationmode sample-hold
attr source radioChannelChanged
attr title "Radio channel, vector"
vector 140 RoutingScenario.node[5].wlan[0].radio receptionState:vector ETV
attr interpolationmode sample-hold
attr source receptionStateChanged
attr title "Radio reception state, vector"
vector 141 RoutingScenario.node[5].wlan[0].mac.dcf.recoveryProcedure contentionWindowChanged:vector ETV
attr interpolationmode sample-hold
attr title "contention window, vector"
vector 142 RoutingScenario.node[5].app[0] packetSent:vector(packetBytes) ETV
attr interpolationmode none
attr source packetSent
attr title "packets sent, vector(packetBytes)"
vector 143 RoutingScenario.node[5].udp packetSent:vector(packetBytes) ETV
attr interpolationmode none
attr source packetSent
attr title "packets sent, vector(packetBytes)"
vector 144 RoutingScenario.node[5].wlan[0].mac packetReceivedFromUpper:vector(packetBytes) ETV
attr interpolationmode none
attr title "packets received from upper layer, vector(packetBytes)"
vector 145 RoutingScenario.node[5].wlan[0].mac.dcf.channelAccess.pendingQueue packetPushed:vector(packetBytes) ETV
attr interpolationmode none
attr title "packet pushed, vector(packetBytes)"
vector 146 RoutingScenario.node[5].wlan[0].mac.dcf.channelAccess.pendingQueue queueLength:vector ETV
attr interpolationmode sample-hold
attr source "count(packetPushed) - count(packetPopped) - count(packetRemoved) - count(packetDropped)"
attr title "queue length, vector"
vector 147 RoutingScenario.node[5].wlan[0].mac.dcf.channelAccess.contention backoffPeriodGenerated:vector ETV
attr interpolationmode none
attr title "backoff periods, vector"
vector 148 RoutingScenario.node[5].wlan[0].mac.dcf.channelAccess.contention backoffActive:vector ETV
attr interpolationmode sample-hold
attr source count(backoffStarted)-count(backoffStopped)
attr title "backoff active, vector"
vector 149 RoutingScenario.node[5].wlan[0].mac.dcf.channelAccess.pendingQueue packetPopped:vector(packetBytes) ETV
attr interpolationmode none
attr title "packet popped, vector(packetBytes)"
vector 150 RoutingScenario.node[5].wlan[0].mac.dcf.channelAccess.pendingQueue queueingTime:vector ETV
attr interpolationmode none
attr source queueingTime(packetPopped)
attr title "queueing times, vector"
attr unit s
vector 151 RoutingScenario.node[5].wlan[0].mac.dcf.channelAccess.inProgressFrames queueLength:vector ETV
attr interpolationmode sample-hold
attr source "count(packetEnqueued) - count(packetDequeued)"
attr title "queue length, vector"
vector 152 RoutingScenario.node[5].wlan[0].mac.dcf datarateSelected:vector ETV
attr interpolationmode none
attr title "datarates selected, vector"
vector 153 RoutingScenario.node[5].wlan[0].mac packetSentToLower:vector(packetBytes) ETV
attr interpolationmode none
attr title "packets sent to lower layer, vector(packetBytes)"
vector 154 RoutingScenario.node[5].wlan[0].mac.dcf frameSequenceActive:vector ETV
attr interpolationmode sample-hold
attr source count(frameSequenceStarted)-count(frameSequenceFinished)
attr title "frame sequence active, vector"
vector 155 RoutingScenario.node[5].wlan[0].radio transmissionState:vector ETV
attr interpolationmode sample-hold
attr source transmissionStateChanged
attr title "Radio transmission state, vector"
vector 156 RoutingScenario.node[5].wlan[0].mac.dcf packetSentToPeer:vector(packetBytes) ETV
attr interpolationmode none
attr title "packets sent, vector(packetBytes)"
vector 157 RoutingScenario.node[5].wlan[0].mac.dcf packetSentToPeerMulticast:vector(packetBytes) ETV
attr interpolationmode none
attr source ieee80211Multicast(packetSentToPeer)
attr title "packets sent: multicast, vector(packetBytes)"
vector 158 RoutingScenario.node[5].wlan[0].mac.dcf packetSentToPeerBroadcast:vector(packetBytes) ETV
attr interpolationmode none
attr source ieee80211Broadcast(packetSentToPeer)
attr title "packets sent: broadcast , vector(packetBytes)"
vector 159 RoutingScenario.node[5].wlan[0].mac.dcf packetSentToPeerWithoutRetry:vector(packetBytes) ETV
attr interpolationmode none
attr source ieee80211NotRetry(packetSentToPeer)
attr title "packets sent: without retry, vector(packetBytes)"
vector 160 RoutingScenario.node[5].wlan[0].mac.dcf.channelAccess.inProgressFrames queueingTime:vector ETV
attr interpolationmode none
attr source queueingTime(packetDequeued)
attr title "queueing times, vector"
vector 161 RoutingScenario.node[4].wlan[0].mac packetReceivedFromLower:vector(packetBytes) ETV
attr interpolationmode none
attr title "packets received from lower layer, vector(packetBytes)"
vector 162 RoutingScenario.node[4].wlan[0].mac.dcf packetReceivedFromPeer:vector(packetBytes) ETV
attr interpolationmode none
attr title "packets received, vector(packetBytes)"
vector 163 RoutingScenario.node[4].wlan[0].mac.dcf packetReceivedFromPeerMulticast:vector(packetBytes) ETV
attr interpolationmode none
attr source ieee80211Multicast(packetReceivedFromPeer)
attr title "packets received: multicast, vector(packetBytes)"
vector 164 RoutingScenario.node[4].wlan[0].mac.dcf packetReceivedFromPeerBroadcast:vector(packetBytes) ETV
attr interpolationmode none
attr source ieee80211Broadcast(packetReceivedFromPeer)
attr title "packets received: broadcast, vector(packetBytes)"
vector 165 RoutingScenario.node[4].wlan[0].mac.dcf packetReceivedFromPeerWithoutRetry:vector(packetBytes) ETV
attr interpolationmode none
attr source ieee80211NotRetry(packetReceivedFromPeer)
attr title "packets received: without retry, vector(packetBytes)"
vector 166 RoutingScenario.node[4].wlan[0].mac packetSentToUpper:vector(packetBytes) ETV
attr interpolationmode none
attr title "packets sent to upper layer, vector(packetBytes)"
vector 167 RoutingScenario.node[4].udp packetReceived:vector(packetBytes) ETV
attr interpolationmode none
attr source packetReceived
attr title "packets received, vector(packetBytes)"
vector 168 RoutingScenario.node[4].udp passedUpPk:vector(count) ETV
attr interpolationmode none
attr source packetSentToUpper
attr title "packets passed up, vector(count)"
vector 169 RoutingScenario.node[1].wlan[0].mac packetReceivedFromLower:vector(packetBytes) ETV
attr interpolationmode none
attr title "packets received from lower layer, vector(packetBytes)"
vector 170 RoutingScenario.node[1].wlan[0].mac.dcf packetReceivedFromPeer:vector(packetBytes) ETV
attr interpolationmode none
attr title "packets received, vector(packetBytes)"
vector 171 RoutingScenario.node[1].wlan[0].mac.dcf packetReceivedFromPeerMulticast:vector(packetBytes) ETV
attr interpolationmode none
attr source ieee80211Multicast(packetReceivedFromPeer)
attr title "packets received: multicast, vector(packetBytes)"
vector 172 RoutingScenario.node[1].wlan[0].mac.dcf packetReceivedFromPeerBroadcast:vector(packetBytes) ETV
attr interpolationmode none
attr source ieee80211Broadcast(packetReceivedFromPeer)
attr title "packets received: broadcast, vector(packetBytes)"
vector 173 RoutingScenario.node[1].wlan[0].mac.dcf packetReceivedFromPeerWithoutRetry:vector(packetBytes) ETV
attr interpolationmode none
attr source ieee80211NotRetry(packetReceivedFromPeer)
attr title "packets received: without retry, vector(packetBytes)"
vector 174 RoutingScenario.node[1].wlan[0].mac packetSentToUpper:vector(packetBytes) ETV
attr interpolationmode none
attr title "packets sent to upper layer, vector(packetBytes)"
vector 175 RoutingScenario.node[1].udp packetReceived:vector(packetBytes) ETV
attr interpolationmode none
attr source packetReceived
attr title "packets received, vector(packetBytes)"
vector 176 RoutingScenario.node[1].udp passedUpPk:vector(count) ETV
attr interpolationmode none
attr source packetSentToUpper
attr title "packets passed up, vector(count)"
vector 177 RoutingScenario.node[0].ipv4.arp arpRequestSent:vector(packetBytes) ETV
attr source arpRequestSent
attr title "ARP request sent, vector(packetBytes)"
vector 178 RoutingScenario.node[0].wlan[0].mac packetReceivedFromUpper:vector(packetBytes) ETV
attr interpolationmode none
attr title "packets received from upper layer, vector(packetBytes)"
vector 179 RoutingScenario.node[0].wlan[0].mac.dcf.channelAccess.pendingQueue packetPushed:vector(packetBytes) ETV
attr interpolationmode none
attr title "packet pushed, vector(packetBytes)"
vector 180 RoutingScenario.node[0].wlan[0].mac.dcf.channelAccess.pendingQueue queueLength:vector ETV
attr interpolationmode sample-hold
attr source "count(packetPushed) - count(packetPopped) - count(packetRemoved) - count(packetDropped)"
attr title "queue length, vector"
vector 181 RoutingScenario.node[0].wlan[0].mac.dcf.channelAccess.contention backoffPeriodGenerated:vector ETV
attr interpolationmode none
attr title "backoff periods, vector"
vector 182 RoutingScenario.node[0].wlan[0].mac.dcf.channelAccess.contention backoffActive:vector ETV
attr interpolationmode sample-hold
attr source count(backoffStarted)-count(backoffStopped)
attr title "backoff active, vector"
vector 183 RoutingScenario.node[0].wlan[0].mac.dcf.channelAccess.pendingQueue packetPopped:vector(packetBytes) ETV
attr interpolationmode none
attr title "packet popped, vector(packetBytes)"
vector 184 RoutingScenario.node[0].wlan[0].mac.dcf.channelAccess.pendingQueue queueingTime:vector ETV
attr interpolationmode none
attr source queueingTime(packetPopped)
attr title "queueing times, vector"
attr unit s
vector 185 RoutingScenario.node[0].wlan[0].mac.dcf.channelAccess.inProgressFrames queueLength:vector ETV
attr interpolationmode sample-hold
attr source "count(packetEnqueued) - count(packetDequeued)"
attr title "queue length, vector"
vector 186 RoutingScenario.node[0].wlan[0].mac.dcf datarateSelected:vector ETV
attr interpolationmode none
attr title "datarates selected, vector"
vector 187 RoutingScenario.node[0].wlan[0].mac packetSentToLower:vector(packetBytes) ETV
attr interpolationmode none
attr title "packets sent to lower layer, vector(packetBytes)"
vector 188 RoutingScenario.node[0].wlan[0].mac.dcf frameSequenceActive:vector ETV
attr interpolationmode sample-hold
attr source count(frameSequenceStarted)-count(frameSequenceFinished)
attr title "frame sequence active, vector"
vector 189 RoutingScenario.node[0].wlan[0].radio transmissionState:vector ETV
attr interpolationmode sample-hold
attr source transmissionStateChanged
attr title "Radio transmission state, vector"
vector 190 RoutingScenario.node[0].wlan[0].mac.dcf packetSentToPeer:vector(packetBytes) ETV
attr interpolationmode none
attr title "packets sent, vector(packetBytes)"
vector 191 RoutingScenario.node[0].wlan[0].mac.dcf packetSentToPeerMulticast:vector(packetBytes) ETV
attr interpolationmode none
attr source ieee80211Multicast(packetSentToPeer)
attr title "packets sent: multicast, vector(packetBytes)"
vector 192 RoutingScenario.node[0].wlan[0].mac.dcf packetSentToPeerBroadcast:vector(packetBytes) ETV
attr interpolationmode none
attr source ieee80211Broadcast(packetSentToPeer)
attr title "packets sent: broadcast , vector(packetBytes)"
vector 193 RoutingScenario.node[0].wlan[0].mac.dcf packetSentToPeerWithoutRetry:vector(packetBytes) ETV
attr interpolationmode none
attr source ieee80211NotRetry(packetSentToPeer)
attr title "packets sent: without retry, vector(packetBytes)"
vector 194 RoutingScenario.node[0].wlan[0].mac.dcf.channelAccess.inProgressFrames queueingTime:vector ETV
attr interpolationmode none
attr source queueingTime(packetDequeued)
attr title "queueing times, vector"
vector 195 RoutingScenario.node[5].wlan[0].mac packetReceivedFromLower:vector(packetBytes) ETV
attr interpolationmode none
attr title "packets received from lower layer, vector(packetBytes)"
vector 196 RoutingScenario.node[5].wlan[0].mac.dcf packetReceivedFromPeer:vector(packetBytes) ETV
attr interpolationmode none
attr title "packets received, vector(packetBytes)"
vector 197 RoutingScenario.node[5].wlan[0].mac.dcf packetReceivedFromPeerMulticast:vector(packetBytes) ETV
attr interpolationmode none
attr source ieee80211Multicast(packetReceivedFromPeer)
attr title "packets received: multicast, vector(packetBytes)"
vector 198 RoutingScenario.node[5].wlan[0].mac.dcf packetReceivedFromPeerBroadcast:vector(packetBytes) ETV
attr interpolationmode none
attr source ieee80211Broadcast(packetReceivedFromPeer)
attr title "packets received: broadcast, vector(packetBytes)"
vector 199 RoutingScenario.node[5].wlan[0].mac.dcf packetReceivedFromPeerWithoutRetry:vector(packetBytes) ETV
attr interpolationmode none
attr source ieee80211NotRetry(packetReceivedFromPeer)
attr title "packets received: without retry, vector(packetBytes)"
vector 200 RoutingScenario.node[5].wlan[0].mac packetSentToUpper:vector(packetBytes) ETV
attr interpolationmode none
attr title "packets sent to upper layer, vector(packetBytes)"
vector 201 RoutingScenario.node[5].ipv4.arp arpReplySent:vector(packetBytes) ETV
attr source arpReplySent
attr title "ARP replies sent, vector(packetBytes)"
vector 202 RoutingScenario.node[5].wlan[0].mac.dcf packetSentToPeerUnicast:vector(packetBytes) ETV
attr interpolationmode none
attr source ieee80211Unicast(packetSentToPeer)
attr title "packets sent: unicast, vector(packetBytes)"
vector 203 RoutingScenario.node[5].wlan[0].mac.rx nav:vector ETV
attr interpolationmode linear
attr source navChanged
attr title "network allocation vector, vector"
vector 204 RoutingScenario.node[4].wlan[0].mac.rx nav:vector ETV
attr interpolationmode linear
attr source navChanged
attr title "network allocation vector, vector"
vector 205 RoutingScenario.node[4].wlan[0].mac.dcf packetDrop:vector(packetBytes) ETV
attr interpolationmode none
attr source packetDropped
attr title "packet drops, vector(packetBytes)"
vector 206 RoutingScenario.node[4].wlan[0].mac.dcf packetDropNotAddressedToUs:vector(packetBytes) ETV
attr interpolationmode none
attr source packetDropReasonIsNotAddressedToUs(packetDropped)
attr title "packet drops: not addressed to us, vector(packetBytes)"
vector 207 RoutingScenario.node[4].wlan[0].mac packetDrop:vector(packetBytes) ETV
attr interpolationmode none
attr source packetDropped
attr title "packet drops, vector(packetBytes)"
vector 208 RoutingScenario.node[4].wlan[0].mac packetDropNotAddressedToUs:vector(packetBytes) ETV
attr interpolationmode none
attr source packetDropReasonIsNotAddressedToUs(packetDropped)
attr title "packet drops: not addressed to us, vector(packetBytes)"
vector 209 RoutingScenario.node[1].wlan[0].mac.rx nav:vector ETV
attr interpolationmode linear
attr source navChanged
attr title "network allocation vector, vector"
vector 210 RoutingScenario.node[1].wlan[0].mac.dcf packetDrop:vector(packetBytes) ETV
attr interpolationmode none
attr source packetDropped
attr title "packet drops, vector(packetBytes)"
vector 211 RoutingScenario.node[1].wlan[0].mac.dcf packetDropNotAddressedToUs:vector(packetBytes) ETV
attr interpolationmode none
attr source packetDropReasonIsNotAddressedToUs(packetDropped)
attr title "packet drops: not addressed to us, vector(packetBytes)"
vector 212 RoutingScenario.node[1].wlan[0].mac packetDrop:vector(packetBytes) ETV
attr interpolationmode none
attr source packetDropped
attr title "packet drops, vector(packetBytes)"
vector 213 RoutingScenario.node[1].wlan[0].mac packetDropNotAddressedToUs:vector(packetBytes) ETV
attr interpolationmode none
attr source packetDropReasonIsNotAddressedToUs(packetDropped)
attr title "packet drops: not addressed to us, vector(packetBytes)"
vector 214 RoutingScenario.node[2].wlan[0].mac.dcf packetDrop:vector(packetBytes) ETV
attr interpolationmode none
attr source packetDropped
attr title "packet drops, vector(packetBytes)"
vector 215 RoutingScenario.node[2].wlan[0].mac.dcf packetDropNotAddressedToUs:vector(packetBytes) ETV
attr interpolationmode none
attr source packetDropReasonIsNotAddressedToUs(packetDropped)
attr title "packet drops: not addressed to us, vector(packetBytes)"
vector 216 RoutingScenario.node[2].wlan[0].mac packetDrop:vector(packetBytes) ETV
attr interpolationmode none
attr source packetDropped
attr title "packet drops, vector(packetBytes)"
vector 217 RoutingScenario.node[2].wlan[0].mac packetDropNotAddressedToUs:vector(packetBytes) ETV
attr interpolationmode none
attr source packetDropReasonIsNotAddressedToUs(packetDropped)
attr title "packet drops: not addressed to us, vector(packetBytes)"
vector 218 RoutingScenario.node[0].wlan[0].mac.dcf packetReceivedFromPeerUnicast:vector(packetBytes) ETV
attr interpolationmode none
attr source ieee80211Unicast(packetReceivedFromPeer)
attr title "packets received: unicast, vector(packetBytes)"
vector 219 RoutingScenario.node[0].wlan[0].mac.dcf packetSentToPeerUnicast:vector(packetBytes) ETV
attr interpolationmode none
attr source ieee80211Unicast(packetSentToPeer)
attr title "packets sent: unicast, vector(packetBytes)"
vector 220 RoutingScenario.node[5].wlan[0].mac.dcf packetReceivedFromPeerUnicast:vector(packetBytes) ETV
attr interpolationmode none
attr source ieee80211Unicast(packetReceivedFromPeer)
attr title "packets received: unicast, vector(packetBytes)"
vector 221 RoutingScenario.node[3].wlan[0].mac.dcf packetDrop:vector(packetBytes) ETV
attr interpolationmode none
attr source packetDropped
attr title "packet drops, vector(packetBytes)"
vector 222 RoutingScenario.node[3].wlan[0].mac.dcf packetDropNotAddressedToUs:vector(packetBytes) ETV
attr interpolationmode none
attr source packetDropReasonIsNotAddressedToUs(packetDropped)
attr title "packet drops: not addressed to us, vector(packetBytes)"
vector 223 RoutingScenario.node[3].wlan[0].mac packetDrop:vector(packetBytes) ETV
attr interpolationmode none
attr source packetDropped
attr title "packet drops, vector(packetBytes)"
vector 224 RoutingScenario.node[3].wlan[0].mac packetDropNotAddressedToUs:vector(packetBytes) ETV
attr interpolationmode none
attr source packetDropReasonIsNotAddressedToUs(packetDropped)
attr title "packet drops: not addressed to us, vector(packetBytes)"
vector 225 RoutingScenario.node[5].udp packetReceived:vector(packetBytes) ETV
attr interpolationmode none
attr source packetReceived
attr title "packets received, vector(packetBytes)"
vector 226 RoutingScenario.node[5].udp passedUpPk:vector(count) ETV
attr interpolationmode none
attr source packetSentToUpper
attr title "packets passed up, vector(count)"
0	2	0.1	0
0	2	0.1	0
0	2	0.1	2
0	5500	5.103945704359	3
0	5508	5.104033704359	2
0	5574	5.104425750625	3
0	5586	5.104481750625	2
0	5687	5.105162727067	3
0	5695	5.105258727067	2
0	5760	5.106372734925	3
0	5772	5.106428734925	2
0	5782	5.106486734925	3
0	5790	5.106590734925	2
0	5880	5.11904112431	3
0	5892	5.11909712431	2
0	5902	5.11929812431	3
0	5910	5.11940212431	2
0	6004	5.142771627578	3
0	6016	5.142827627578	2
0	6026	5.143028627578	3
0	6037	5.143132627578	2
0	6129	5.159312627521	3
0	6141	5.159368627521	2
0	6176	5.160212635379	3
0	6188	5.160268635379	2
0	6198	5.160339635379	3
0	6206	5.160443635379	2
0	6242	5.160786643237	3
0	6250	5.160890643237	2
0	6345	5.169550340024	3
0	6357	5.169606340024	2
0	6367	5.169716340024	3
0	6375	5.169820340024	2
0	6478	5.191934237079	3
0	6490	5.191990237079	2
0	6503	5.192204237079	3
0	6511	5.192308237079	2
0	6605	5.210977932688	3
0	6617	5.211033932688	2
0	6627	5.211130932688	3
0	6635	5.211234932688	2
0	6696	5.21227093831	3
0	6708	5.21232693831	2
0	6718	5.21238493831	3
0	6726	5.21248893831	2
0	6802	5.221780168618	3
0	6814	5.221836168618	2
0	6827	5.222037168618	3
0	6835	5.222141168618	2
0	6920	5.236249006077	3
0	6932	5.236305006077	2
0	6942	5.236454006077	3
0	6950	5.236558006077	2
0	7011	5.237568011699	3
0	7023	5.237624011699	2
0	7036	5.237786011699	3
0	7044	5.237890011699	2
0	7172	5.286347792559	3
0	7184	5.286403792559	2
0	7200	5.286513792559	3
0	7208	5.286617792559	2
0	7280	5.289929622705	3
0	7292	5.289985622705	2
0	7302	5.290108622705	3
0	7310	5.290212622705	2
0	7376	5.292150061602	3
0	7388	5.292206061602	2
0	7398	5.292342061602	3
0	7406	5.292446061602	2
0	7482	5.298558787754	3
0	7494	5.298614787754	2
0	7504	5.298750787754	3
0	7512	5.298854787754	2
0	7590	5.302895453725	3
0	7602	5.302951453725	2
0	7645	5.3038345899	3
0	7657	5.3038905899	2
0	7667	5.3040005899	3
0	7675	5.3041045899	2
0	7711	5.30435659668	3
0	7719	5.30446059668	2
0	7795	5.309403553795	3
0	7807	5.309459553795	2
0	7817	5.309686553795	3
0	7825	5.309790553795	2
0	7896	5.313465410526	3
0	7908	5.313521410526	2
0	7918	5.313709410526	3
0	7927	5.313813410526	2
0	8032	5.329613344776	3
0	8044	5.329669344776	2
0	8079	5.330526351556	3
0	8091	5.330582351556	2
0	8101	5.330692351556	3
0	8109	5.330796351556	2
0	8145	5.331100358336	3
0	8153	5.331204358336	2
0	8266	5.354207048453	3
0	8278	5.354263048453	2
0	8288	5.354490048453	3
0	8296	5.354594048453	2
0	8362	5.355617055233	3
0	8374	5.355673055233	2
0	8384	5.355848055233	3
0	8392	5.355952055233	2
0	8467	5.357695274391	3
0	8479	5.357751274391	2
0	8489	5.357835274391	3
0	8497	5.357939274391	2
0	8620	5.395755511075	3
0	8632	5.395811511075	2
1	2	0.1	3
2	2	0.1	1
2	1348	2.100909168813	3
2	1352	2.101013168813	1
2	1682	2.420871574207	3
2	1686	2.420975574207	1
2	2176	2.900665095769	3
2	2180	2.900769095769	1
2	2395	3.101510014418	3
2	2405	3.101598014418	1
2	2431	3.101816571124	3
2	2438	3.101872571124	1
2	2446	3.101956571124	3
2	2456	3.102052571124	1
2	3047	3.542982084869	3
2	3057	3.543086084869	1
2	5461	5.103679704359	3
2	5487	5.103783704359	1
2	5500	5.103945704359	0
2	5508	5.104033704359	1
2	5528	5.104119820449	3
2	5543	5.104207820449	1
2	5556	5.104305750625	3
2	5566	5.104393750625	1
2	5574	5.104425750625	0
2	5586	5.104481750625	1
2	5601	5.104658758483	3
2	5615	5.104746758483	1
2	5623	5.104779796891	3
2	5636	5.104835796891	1
2	5646	5.104893796891	3
2	5659	5.104989796891	1
2	5669	5.105022727067	3
2	5682	5.105078727067	1
2	5687	5.105162727067	0
2	5695	5.105258727067	1
2	5715	5.105292734925	3
2	5727	5.105348734925	1
2	5740	5.105588734925	3
2	5750	5.106340734925	1
2	5760	5.106372734925	0
2	5772	5.106428734925	1
2	5782	5.106486734925	0
2	5790	5.106590734925	1
2	5809	5.106624742783	3
2	5821	5.106680742783	1
2	5854	5.11825712431	3
2	5870	5.11900912431	1
2	5880	5.11904112431	0
2	5892	5.11909712431	1
2	5902	5.11929812431	0
2	5910	5.11940212431	1
2	5929	5.119436132168	3
2	5941	5.119492132168	1
2	5984	5.141987627578	3
2	5994	5.142739627578	1
2	6004	5.142771627578	0
2	6016	5.142827627578	1
2	6026	5.143028627578	0
2	6037	5.143132627578	1
2	6056	5.143166635436	3
2	6068	5.143222635436	1
2	6104	5.158528627521	3
2	6119	5.159280627521	1
2	6129	5.159312627521	0
2	6141	5.159368627521	1
2	6156	5.159428635379	3
2	6166	5.160180635379	1
2	6176	5.160212635379	0
2	6188	5.160268635379	1
2	6198	5.160339635379	0
2	6206	5.160443635379	1
2	6225	5.160477643237	3
2	6237	5.160533643237	1
2	6242	5.160786643237	0
2	6250	5.160890643237	1
2	6269	5.160924651095	3
2	6281	5.160980651095	1
2	6323	5.168766340024	3
2	6335	5.169518340024	1
2	6345	5.169550340024	0
2	6357	5.169606340024	1
2	6367	5.169716340024	0
2	6375	5.169820340024	1
2	6394	5.169854347882	3
2	6406	5.169910347882	1
2	6458	5.191150237079	3
2	6468	5.191902237079	1
2	6478	5.191934237079	0
2	6490	5.191990237079	1
2	6503	5.192204237079	0
2	6511	5.192308237079	1
2	6530	5.192342244937	3
2	6542	5.192398244937	1
2	6580	5.210193932688	3
2	6595	5.210945932688	1
2	6605	5.210977932688	0
2	6617	5.211033932688	1
2	6627	5.211130932688	0
2	6635	5.211234932688	1
2	6654	5.21126893831	3
2	6666	5.21132493831	1
2	6676	5.21148693831	3
2	6686	5.21223893831	1
2	6696	5.21227093831	0
2	6708	5.21232693831	1
2	6718	5.21238493831	0
2	6726	5.21248893831	1
2	6745	5.212522943932	3
2	6757	5.212578943932	1
2	6773	5.220996168618	3
2	6792	5.221748168618	1
2	6802	5.221780168618	0
2	6814	5.221836168618	1
2	6827	5.222037168618	0
2	6835	5.222141168618	1
2	6854	5.22217517424	3
2	6866	5.22223117424	1
2	6895	5.235465006077	3
2	6910	5.236217006077	1
2	6920	5.236249006077	0
2	6932	5.236305006077	1
2	6942	5.236454006077	0
2	6950	5.236558006077	1
2	6969	5.236592011699	3
2	6981	5.236648011699	1
2	6991	5.236784011699	3
2	7001	5.237536011699	1
2	7011	5.237568011699	0
2	7023	5.237624011699	1
2	7036	5.237786011699	0
2	7044	5.237890011699	1
2	7063	5.237924017321	3
2	7075	5.237980017321	1
2	7146	5.285563792559	3
2	7162	5.286315792559	1
2	7172	5.286347792559	0
2	7184	5.286403792559	1
2	7200	5.286513792559	0
2	7208	5.286617792559	1
2	7227	5.286651798181	3
2	7239	5.286707798181	1
2	7260	5.289145622705	3
2	7270	5.289897622705	1
2	7280	5.289929622705	0
2	7292	5.289985622705	1
2	7302	5.290108622705	0
2	7310	5.290212622705	1
2	7329	5.290246628327	3
2	7341	5.290302628327	1
2	7356	5.291366061602	3
2	7366	5.292118061602	1
2	7376	5.292150061602	0
2	7388	5.292206061602	1
2	7398	5.292342061602	0
2	7406	5.292446061602	1
2	7425	5.292480067224	3
2	7437	5.292536067224	1
2	7459	5.297774787754	3
2	7472	5.298526787754	1
2	7482	5.298558787754	0
2	7494	5.298614787754	1
2	7504	5.298750787754	0
2	7512	5.298854787754	1
2	7531	5.298888793376	3
2	7543	5.298944793376	1
2	7566	5.302111453725	3
2	7580	5.302863453725	1
2	7590	5.302895453725	0
2	7602	5.302951453725	1
2	7622	5.3030505899	3
2	7635	5.3038025899	1
2	7645	5.3038345899	0
2	7657	5.3038905899	1
2	7667	5.3040005899	0
2	7675	5.3041045899	1
2	7694	5.30413859668	3
2	7706	5.30419459668	1
2	7711	5.30435659668	0
2	7719	5.30446059668	1
2	7738	5.30449460346	3
2	7750	5.30455060346	1
2	7773	5.308619553795	3
2	7785	5.309371553795	1
2	7795	5.309403553795	0
2	7807	5.309459553795	1
2	7817	5.309686553795	0
2	7825	5.309790553795	1
2	7844	5.309824560575	3
2	7856	5.309880560575	1
2	7874	5.312681410526	3
2	7886	5.313433410526	1
2	7896	5.313465410526	0
2	7908	5.313521410526	1
2	7918	5.313709410526	0
2	7927	5.313813410526	1
2	7946	5.313847417306	3
2	7959	5.313903417306	1
2	8007	5.328829344776	3
2	8022	5.329581344776	1
2	8032	5.329613344776	0
2	8044	5.329669344776	1
2	8059	5.329742351556	3
2	8069	5.330494351556	1
2	8079	5.330526351556	0
2	8091	5.330582351556	1
2	8101	5.330692351556	0
2	8109	5.330796351556	1
2	8128	5.330830358336	3
2	8140	5.330886358336	1
2	8145	5.331100358336	0
2	8153	5.331204358336	1
2	8172	5.331238365116	3
2	8184	5.331294365116	1
2	8246	5.353423048453	3
2	8256	5.354175048453	1
2	8266	5.354207048453	0
2	8278	5.354263048453	1
2	8288	5.354490048453	0
2	8296	5.354594048453	1
2	8315	5.354628055233	3
2	8327	5.354684055233	1
2	8342	5.354833055233	3
2	8352	5.355585055233	1
2	8362	5.355617055233	0
2	8374	5.355673055233	1
2	8384	5.355848055233	0
2	8392	5.355952055233	1
2	8411	5.355986062013	3
2	8423	5.356042062013	1
2	8444	5.356911274391	3
2	8457	5.357663274391	1
2	8467	5.357695274391	0
2	8479	5.357751274391	1
2	8489	5.357835274391	0
2	8497	5.357939274391	1
2	8516	5.357973281171	3
2	8528	5.358029281171	1
2	8600	5.394971511075	3
2	8610	5.395723511075	1
2	8620	5.395755511075	0
2	8632	5.395811511075	1
3	2	0.1	15
4	5	0.1	1000
4	12	0.115071169097	1000
4	18	0.126149846675	1000
4	24	0.135596260355	1000
4	30	0.142208842195	1000
4	36	0.154666753803	1000
4	42	0.161572984166	1000
4	48	0.18825527723	1000
4	55	0.228034224589	1000
4	61	0.233837449848	1000
4	67	0.252664203259	1000
4	73	0.261696292619	1000
4	79	0.271769486854	1000
4	86	0.302948535884	1000
4	92	0.30383276015	1000
4	98	0.304926692463	1000
4	104	0.305171799524	1000
4	110	0.326621651485	1000
4	116	0.344691062589	1000
4	122	0.369174833684	1000
4	129	0.415317496114	1000
4	135	0.434580370799	1000
4	141	0.442007524315	1000
4	147	0.460205956003	1000
4	153	0.461716448916	1000
4	159	0.473973631408	1000
4	165	0.475830387574	1000
4	172	0.51056343331	1000
4	178	0.519417360811	1000
4	184	0.525844149454	1000
4	190	0.52953151368	1000
4	196	0.547390571589	1000
4	202	0.554699560667	1000
4	208	0.564783577134	1000
4	214	0.565011199964	1000
4	220	0.576547771233	1000
4	226	0.587911731359	1000
4	232	0.599426307087	1000
4	239	0.633961287342	1000
4	245	0.647702954798	1000
4	251	0.653049176739	1000
4	257	0.65994356562	1000
4	263	0.674296859213	1000
4	269	0.675042242699	1000
4	275	0.68822919231	1000
4	282	0.701556361658	1000
4	288	0.704390842131	1000
4	294	0.706047186392	1000
4	300	0.710594729963	1000
4	306	0.716019954686	1000
4	312	0.726153088208	1000
4	318	0.733080979938	1000
4	324	0.786534942092	1000
4	330	0.78782656339	1000
4	336	0.790638181615	1000
4	342	0.79274914416	1000
4	349	0.805454056741	1000
4	355	0.80895902314	1000
4	361	0.816494322112	1000
4	367	0.819857646214	1000
4	373	0.821935175688	1000
4	379	0.823338640606	1000
4	385	0.836155506972	1000
4	391	0.837940054203	1000
4	397	0.840566621361	1000
4	403	0.846086788854	1000
4	409	0.866730768747	1000
4	415	0.867956507325	1000
4	421	0.889794334356	1000
4	427	0.89100675166	1000
4	434	0.935995129175	1000
4	440	0.943583168332	1000
4	446	0.988726295746	1000
4	452	0.999868037709	1000
4	459	1.015998980975	1000
4	465	1.016478696564	1000
4	471	1.020467619456	1000
4	477	1.02200430064	1000
4	483	1.026218413713	1000
4	489	1.02773507735	1000
4	495	1.032327488736	1000
4	501	1.038746101245	1000
4	507	1.039541670063	1000
4	513	1.053691944388	1000
4	519	1.063725114772	1000
4	525	1.067426092853	1000
4	531	1.076315200258	1000
4	537	1.077499003959	1000
4	543	1.087793751652	1000
4	580	1.119584822796	1000
4	589	1.125671224275	1000
4	595	1.127834251299	1000
4	607	1.133375022052	1000
4	619	1.147973125893	1000
4	631	1.164905418805	1000
4	637	1.177129323565	1000
4	650	1.203787406347	1000
4	674	1.249903485346	1000
4	695	1.290275930783	1000
4	705	1.301849373569	1000
4	714	1.309470906157	1000
4	720	1.313546882948	1000
4	729	1.319350511187	1000
4	747	1.344639882446	1000
4	753	1.345050323466	1000
4	774	1.386720749217	1000
4	780	1.390339540176	1000
4	786	1.399580462491	1000
4	793	1.406709344471	1000
4	799	1.407967926498	1000
4	808	1.413180074369	1000
4	832	1.43525686779	1000
4	838	1.443775882917	1000
4	847	1.44596634614	1000
4	859	1.469990184086	1000
4	865	1.470395625513	1000
4	896	1.518993787579	1000
4	902	1.535629283803	1000
4	908	1.540604634315	1000
4	917	1.548674160517	1000
4	926	1.551048114607	1000
4	935	1.558519282735	1000
4	947	1.593133814196	1000
4	963	1.611503788911	1000
4	981	1.670053383567	1000
4	1006	1.710108595573	1000
4	1027	1.752282339739	1000
4	1042	1.797242675105	1000
4	1052	1.813585855797	1000
4	1061	1.827150122348	1000
4	1073	1.842200561589	1000
4	1088	1.870627579639	1000
4	1103	1.898801704776	1000
4	1109	1.898802368999	1000
4	1120	1.903287528525	1000
4	1139	1.90575170175	1000
4	1148	1.913060237103	1000
4	1161	1.931716192357	1000
4	1167	1.936233344575	1000
4	1185	1.974118491072	1000
4	1197	1.986588958711	1000
4	1210	2.006365872789	1000
4	1216	2.010256262151	1000
4	1222	2.012563399441	1000
4	1234	2.027191391583	1000
4	1240	2.029942323485	1000
4	1246	2.03210561508	1000
4	1252	2.033705702559	1000
4	1264	2.049070794807	1000
4	1270	2.050236806947	1000
4	1276	2.053179184059	1000
4	1285	2.069778981653	1000
4	1291	2.070339234577	1000
4	1297	2.073155104768	1000
4	1303	2.077212961346	1000
4	1315	2.090783983096	1000
4	1321	2.090895379389	1000
4	1363	2.112375254643	1000
4	1384	2.15790354004	1000
4	1396	2.191943222361	1000
4	1418	2.216828359918	1000
4	1424	2.218752369052	1000
4	1466	2.26684776491	1000
4	1479	2.305727320513	1000
4	1491	2.310589515101	1000
4	1497	2.313760760671	1000
4	1509	2.315466266808	1000
4	1515	2.315604185811	1000
4	1536	2.333270635707	1000
4	1548	2.339818528284	1000
4	1569	2.355399875911	1000
4	1581	2.362708649375	1000
4	1587	2.366709489436	1000
4	1596	2.372444505286	1000
4	1614	2.39108945131	1000
4	1623	2.394693352273	1000
4	1636	2.405322480025	1000
4	1645	2.407956097956	1000
4	1651	2.40850375455	1000
4	1693	2.427804768739	1000
4	1699	2.428236802696	1000
4	1709	2.434990705118	1000
4	1718	2.44420974522	1000
4	1724	2.448111795666	1000
4	1730	2.449767234449	1000
4	1739	2.455751542443	1000
4	1748	2.45823776463	1000
4	1754	2.467655808865	1000
4	1760	2.474981603005	1000
4	1779	2.50063066329	1000
4	1788	2.514685827629	1000
4	1797	2.519450799029	1000
4	1809	2.531580028986	1000
4	1840	2.55067870246	1000
4	1847	2.558011393195	1000
4	1865	2.594418704064	1000
4	1871	2.596502582823	1000
4	1881	2.608397936892	1000
4	1887	2.609175125205	1000
4	1902	2.615795568556	1000
4	1932	2.654120711028	1000
4	1959	2.678556241275	1000
4	1965	2.679402264655	1000
4	1971	2.682885545636	1000
4	1980	2.685884955436	1000
4	1992	2.687570664039	1000
4	2004	2.699133776394	1000
4	2011	2.705446145943	1000
4	2017	2.707580667037	1000
4	2023	2.719799277983	1000
4	2029	2.727886599314	1000
4	2074	2.782460485536	1000
4	2080	2.787826164367	1000
4	2102	2.808995213073	1000
4	2120	2.859791402629	1000
4	2132	2.863234311774	1000
4	2138	2.866424110362	1000
4	2144	2.880469339122	1000
4	2150	2.881190879552	1000
4	2156	2.896934436525	1000
4	2203	2.922550865259	1000
4	2215	2.926907811341	1000
4	2224	2.935283061927	1000
4	2233	2.94734444971	1000
4	2248	2.98114739047	1000
4	2285	3.043368943546	1000
4	2297	3.052868252681	1000
4	2318	3.08011677397	1000
4	2330	3.083543601016	1000
4	2339	3.089145973139	1000
4	2473	3.105810100425	1000
4	2479	3.11095139277	1000
4	2497	3.127120778654	1000
4	2518	3.141997155621	1000
4	2524	3.145984283104	1000
4	2536	3.14635270438	1000
4	2546	3.151948268697	1000
4	2588	3.18257798662	1000
4	2594	3.182610469115	1000
4	2609	3.195112602693	1000
4	2615	3.195316790178	1000
4	2625	3.209624579469	1000
4	2637	3.218180057219	1000
4	2646	3.219407678591	1000
4	2655	3.228214118195	1000
4	2661	3.229357531989	1000
4	2667	3.232459042974	1000
4	2679	3.238796770863	1000
4	2694	3.250370768004	1000
4	2700	3.258754010807	1000
4	2718	3.289420223407	1000
4	2746	3.319696432943	1000
4	2752	3.32679206637	1000
4	2794	3.355407450489	1000
4	2803	3.368805673372	1000
4	2812	3.373162239225	1000
4	2821	3.37855879964	1000
4	2833	3.384261312905	1000
4	2842	3.389031061864	1000
4	2848	3.389814585012	1000
4	2858	3.401029550008	1000
4	2864	3.405038451005	1000
4	2873	3.408306665721	1000
4	2879	3.413811681353	1000
4	2892	3.421128827427	1000
4	2920	3.4263817009	1000
4	2929	3.431429712969	1000
4	2942	3.444346398482	1000
4	2951	3.449550792127	1000
4	2960	3.461730299627	1000
4	2991	3.506600081363	1000
4	3003	3.515457722274	1000
4	3009	3.516955239381	1000
4	3015	3.51831331937	1000
4	3024	3.529003564993	1000
4	3067	3.551621940363	1000
4	3074	3.553541270923	1000
4	3086	3.567400965326	1000
4	3098	3.568628787081	1000
4	3104	3.57194663929	1000
4	3110	3.574168511932	1000
4	3143	3.597725991407	1000
4	3153	3.603931994532	1000
4	3168	3.617286360271	1000
4	3177	3.623399502394	1000
4	3195	3.634838933569	1000
4	3204	3.644077276799	1000
4	3222	3.650308321498	1000
4	3234	3.651703821499	1000
4	3246	3.66379109376	1000
4	3279	3.688015058879	1000
4	3291	3.693620897597	1000
4	3300	3.694690950584	1000
4	3306	3.695955464272	1000
4	3321	3.699650729819	1000
4	3331	3.701773298292	1000
4	3355	3.719591067181	1000
4	3373	3.737841578073	1000
4	3382	3.743823774056	1000
4	3394	3.75790838679	1000
4	3400	3.76334934781	1000
4	3412	3.771692657182	1000
4	3424	3.775320594839	1000
4	3430	3.779218396495	1000
4	3448	3.788136024347	1000
4	3454	3.788182438225	1000
4	3463	3.790543086489	1000
4	3469	3.791561543421	1000
4	3485	3.817195870537	1000
4	3491	3.82148289208	1000
4	3503	3.83105167379	1000
4	3509	3.834782378547	1000
4	3539	3.85996819969	1000
4	3557	3.885479366529	1000
4	3590	3.904315026784	1000
4	3596	3.907242182822	1000
4	3602	3.909421133434	1000
4	3636	3.940150660411	1000
4	3642	3.941447213213	1000
4	3648	3.943487898279	1000
4	3660	3.947840191913	1000
4	3666	3.949206519801	1000
4	3684	3.959284521818	1000
4	3720	3.991642940065	1000
4	3757	4.028679705732	1000
4	3769	4.034870286402	1000
4	3781	4.042895870612	1000
4	3787	4.043683828834	1000
4	3799	4.046485993306	1000
4	3823	4.069937698566	1000
4	3847	4.089989537468	1000
4	3856	4.092268238558	1000
4	3914	4.112669725709	1000
4	3929	4.126498657942	1000
4	3938	4.135061991781	1000
4	3953	4.146719607224	1000
4	3962	4.148067623392	1000
4	3986	4.158638514799	1000
4	3998	4.169261116935	1000
4	4037	4.188360102292	1000
4	4059	4.213664112075	1000
4	4068	4.215931854276	1000
4	4080	4.223165585172	1000
4	4089	4.227644221912	1000
4	4098	4.241983359512	1000
4	4107	4.245671766785	1000
4	4113	4.248273247094	1000
4	4131	4.264495112127	1000
4	4158	4.281045696336	1000
4	4173	4.291286384571	1000
4	4179	4.291916697655	1000
4	4185	4.293235530957	1000
4	4201	4.304672172071	1000
4	4216	4.320894334354	1000
4	4237	4.336494886464	1000
4	4246	4.338652055522	1000
4	4264	4.362547133418	1000
4	4282	4.370955185924	1000
4	4288	4.375564044784	1000
4	4334	4.419634759807	1000
4	4397	4.459894332359	1000
4	4412	4.468577433576	1000
4	4430	4.479301736277	1000
4	4439	4.485710888133	1000
4	4451	4.486101855976	1000
4	4479	4.50037187287	1000
4	4488	4.505844974059	1000
4	4497	4.515315040048	1000
4	4503	4.517676501641	1000
4	4515	4.519154199724	1000
4	4527	4.522186484247	1000
4	4549	4.541202712729	1000
4	4598	4.557994787478	1000
4	4631	4.58307207413	1000
4	4692	4.613560995376	1000
4	4698	4.616248286901	1000
4	4740	4.648069774406	1000
4	4746	4.648437860914	1000
4	4785	4.677342893802	1000
4	4800	4.680693486261	1000
4	4809	4.686683547302	1000
4	4815	4.690161788529	1000
4	4821	4.692223836786	1000
4	4840	4.710773511293	1000
4	4852	4.719730844963	1000
4	4858	4.721235151315	1000
4	4864	4.726521700677	1000
4	4873	4.730237299386	1000
4	4879	4.732380487903	1000
4	4900	4.757511697274	1000
4	4912	4.765475469377	1000
4	4921	4.771122243092	1000
4	4942	4.786228995154	1000
4	5015	4.83644479888	1000
4	5024	4.84119518395	1000
4	5033	4.843377613655	1000
4	5039	4.846367280397	1000
4	5063	4.861209387554	1000
4	5084	4.879860886987	1000
4	5090	4.881380336319	1000
4	5105	4.89224406042	1000
4	5153	4.909664682702	1000
4	5187	4.941937715363	1000
4	5211	4.96460131084	1000
4	5244	4.984056750072	1000
4	5262	4.995162223947	1000
4	5299	5.012990777159	1000
4	5305	5.013682090568	1000
4	5353	5.049862504631	1000
4	5365	5.061616385606	1000
4	5383	5.071350882738	1000
4	5407	5.082635938792	1000
4	5413	5.083346197165	1000
4	5856	5.118927029534	1000
4	5944	5.122324571832	1000
4	5960	5.134538115275	1000
4	6074	5.152180913614	1000
4	6284	5.161732280842	1000
4	6290	5.163538608693	1000
4	6305	5.168355024249	1000
4	6559	5.203561004623	1000
4	6776	5.221153137744	1000
4	7078	5.238272197721	1000
4	7122	5.277144975156	1000
4	7148	5.286147040205	1000
4	7192	5.286476459377	1000
4	7982	5.322253656322	1000
4	8207	5.340147104916	1000
4	8222	5.347201290273	1000
4	8426	5.356520886928	1000
4	8534	5.361114098244	1000
5	7	0.1	1008
5	13	0.115071169097	1008
5	19	0.126149846675	1008
5	25	0.135596260355	1008
5	31	0.142208842195	1008
5	37	0.154666753803	1008
5	43	0.161572984166	1008
5	49	0.18825527723	1008
5	56	0.228034224589	1008
5	62	0.233837449848	1008
5	68	0.252664203259	1008
5	74	0.261696292619	1008
5	80	0.271769486854	1008
5	87	0.302948535884	1008
5	93	0.30383276015	1008
5	99	0.304926692463	1008
5	105	0.305171799524	1008
5	111	0.326621651485	1008
5	117	0.344691062589	1008
5	123	0.369174833684	1008
5	130	0.415317496114	1008
5	136	0.434580370799	1008
5	142	0.442007524315	1008
5	148	0.460205956003	1008
5	154	0.461716448916	1008
5	160	0.473973631408	1008
5	166	0.475830387574	1008
5	173	0.51056343331	1008
5	179	0.519417360811	1008
5	185	0.525844149454	1008
5	191	0.52953151368	1008
5	197	0.547390571589	1008
5	203	0.554699560667	1008
5	209	0.564783577134	1008
5	215	0.565011199964	1008
5	221	0.576547771233	1008
5	227	0.587911731359	1008
5	233	0.599426307087	1008
5	240	0.633961287342	1008
5	246	0.647702954798	1008
5	252	0.653049176739	1008
5	258	0.65994356562	1008
5	264	0.674296859213	1008
5	270	0.675042242699	1008
5	276	0.68822919231	1008
5	283	0.701556361658	1008
5	289	0.704390842131	1008
5	295	0.706047186392	1008
5	301	0.710594729963	1008
5	307	0.716019954686	1008
5	313	0.726153088208	1008
5	319	0.733080979938	1008
5	325	0.786534942092	1008
5	331	0.78782656339	1008
5	337	0.790638181615	1008
5	343	0.79274914416	1008
5	350	0.805454056741	1008
5	356	0.80895902314	1008
5	362	0.816494322112	1008
5	368	0.819857646214	1008
5	374	0.821935175688	1008
5	380	0.823338640606	1008
5	386	0.836155506972	1008
5	392	0.837940054203	1008
5	398	0.840566621361	1008
5	404	0.846086788854	1008
5	410	0.866730768747	1008
5	416	0.867956507325	1008
5	422	0.889794334356	1008
5	428	0.89100675166	1008
5	435	0.935995129175	1008
5	441	0.943583168332	1008
5	447	0.988726295746	1008
5	453	0.999868037709	1008
5	460	1.015998980975	1008
5	466	1.016478696564	1008
5	472	1.020467619456	1008
5	478	1.02200430064	1008
5	484	1.026218413713	1008
5	490	1.02773507735	1008
5	496	1.032327488736	1008
5	502	1.038746101245	1008
5	508	1.039541670063	1008
5	514	1.053691944388	1008
5	520	1.063725114772	1008
5	526	1.067426092853	1008
5	532	1.076315200258	1008
5	538	1.077499003959	1008
5	544	1.087793751652	1008
5	581	1.119584822796	1008
5	590	1.125671224275	1008
5	596	1.127834251299	1008
5	608	1.133375022052	1008
5	620	1.147973125893	1008
5	632	1.164905418805	1008
5	638	1.177129323565	1008
5	651	1.203787406347	1008
5	675	1.249903485346	1008
5	696	1.290275930783	1008
5	706	1.301849373569	1008
5	715	1.309470906157	1008
5	721	1.313546882948	1008
5	730	1.319350511187	1008
5	748	1.344639882446	1008
5	754	1.345050323466	1008
5	775	1.386720749217	1008
5	781	1.390339540176	1008
5	787	1.399580462491	1008
5	794	1.406709344471	1008
5	800	1.407967926498	1008
5	809	1.413180074369	1008
5	833	1.43525686779	1008
5	839	1.443775882917	1008
5	848	1.44596634614	1008
5	860	1.469990184086	1008
5	866	1.470395625513	1008
5	897	1.518993787579	1008
5	903	1.535629283803	1008
5	909	1.540604634315	1008
5	918	1.548674160517	1008
5	927	1.551048114607	1008
5	936	1.558519282735	1008
5	948	1.593133814196	1008
5	964	1.611503788911	1008
5	982	1.670053383567	1008
5	1007	1.710108595573	1008
5	1028	1.752282339739	1008
5	1043	1.797242675105	1008
5	1053	1.813585855797	1008
5	1062	1.827150122348	1008
5	1074	1.842200561589	1008
5	1089	1.870627579639	1008
5	1104	1.898801704776	1008
5	1110	1.898802368999	1008
5	1121	1.903287528525	1008
5	1140	1.90575170175	1008
5	1149	1.913060237103	1008
5	1162	1.931716192357	1008
5	1168	1.936233344575	1008
5	1186	1.974118491072	1008
5	1198	1.986588958711	1008
5	1211	2.006365872789	1008
5	1217	2.010256262151	1008
5	1223	2.012563399441	1008
5	1235	2.027191391583	1008
5	1241	2.029942323485	1008
5	1247	2.03210561508	1008
5	1253	2.033705702559	1008
5	1265	2.049070794807	1008
5	1271	2.050236806947	1008
5	1277	2.053179184059	1008
5	1286	2.069778981653	1008
5	1292	2.070339234577	1008
5	1298	2.073155104768	1008
5	1304	2.077212961346	1008
5	1316	2.090783983096	1008
5	1322	2.090895379389	1008
5	1364	2.112375254643	1008
5	1385	2.15790354004	1008
5	1397	2.191943222361	1008
5	1419	2.216828359918	1008
5	1425	2.218752369052	1008
5	1467	2.26684776491	1008
5	1480	2.305727320513	1008
5	1492	2.310589515101	1008
5	1498	2.313760760671	1008
5	1510	2.315466266808	1008
5	1516	2.315604185811	1008
5	1537	2.333270635707	1008
5	1549	2.339818528284	1008
5	1570	2.355399875911	1008
5	1582	2.362708649375	1008
5	1588	2.366709489436	1008
5	1597	2.372444505286	1008
5	1615	2.39108945131	1008
5	1624	2.394693352273	1008
5	1637	2.405322480025	1008
5	1646	2.407956097956	1008
5	1652	2.40850375455	1008
5	1694	2.427804768739	1008
5	1700	2.428236802696	1008
5	1710	2.434990705118	1008
5	1719	2.44420974522	1008
5	1725	2.448111795666	1008
5	1731	2.449767234449	1008
5	1740	2.455751542443	1008
5	1749	2.45823776463	1008
5	1755	2.467655808865	1008
5	1761	2.474981603005	1008
5	1780	2.50063066329	1008
5	1789	2.514685827629	1008
5	1798	2.519450799029	1008
5	1810	2.531580028986	1008
5	1841	2.55067870246	1008
5	1848	2.558011393195	1008
5	1866	2.594418704064	1008
5	1872	2.596502582823	1008
5	1882	2.608397936892	1008
5	1888	2.609175125205	1008
5	1903	2.615795568556	1008
5	1933	2.654120711028	1008
5	1960	2.678556241275	1008
5	1966	2.679402264655	1008
5	1972	2.682885545636	1008
5	1981	2.685884955436	1008
5	1993	2.687570664039	1008
5	2005	2.699133776394	1008
5	2012	2.705446145943	1008
5	2018	2.707580667037	1008
5	2024	2.719799277983	1008
5	2030	2.727886599314	1008
5	2075	2.782460485536	1008
5	2081	2.787826164367	1008
5	2103	2.808995213073	1008
5	2121	2.859791402629	1008
5	2133	2.863234311774	1008
5	2139	2.866424110362	1008
5	2145	2.880469339122	1008
5	2151	2.881190879552	1008
5	2157	2.896934436525	1008
5	2204	2.922550865259	1008
5	2216	2.926907811341	1008
5	2225	2.935283061927	1008
5	2234	2.94734444971	1008
5	2249	2.98114739047	1008
5	2286	3.043368943546	1008
5	2298	3.052868252681	1008
5	2319	3.08011677397	1008
5	2331	3.083543601016	1008
5	2340	3.089145973139	1008
5	2474	3.105810100425	1008
5	2480	3.11095139277	1008
5	2498	3.127120778654	1008
5	2519	3.141997155621	1008
5	2525	3.145984283104	1008
5	2537	3.14635270438	1008
5	2547	3.151948268697	1008
5	2589	3.18257798662	1008
5	2595	3.182610469115	1008
5	2610	3.195112602693	1008
5	2616	3.195316790178	1008
5	2626	3.209624579469	1008
5	2638	3.218180057219	1008
5	2647	3.219407678591	1008
5	2656	3.228214118195	1008
5	2662	3.229357531989	1008
5	2668	3.232459042974	1008
5	2680	3.238796770863	1008
5	2695	3.250370768004	1008
5	2701	3.258754010807	1008
5	2719	3.289420223407	1008
5	2747	3.319696432943	1008
5	2753	3.32679206637	1008
5	2795	3.355407450489	1008
5	2804	3.368805673372	1008
5	2813	3.373162239225	1008
5	2822	3.37855879964	1008
5	2834	3.384261312905	1008
5	2843	3.389031061864	1008
5	2849	3.389814585012	1008
5	2859	3.401029550008	1008
5	2865	3.405038451005	1008
5	2874	3.408306665721	1008
5	2880	3.413811681353	1008
5	2893	3.421128827427	1008
5	2921	3.4263817009	1008
5	2930	3.431429712969	1008
5	2943	3.444346398482	1008
5	2952	3.449550792127	1008
5	2961	3.461730299627	1008
5	2992	3.506600081363	1008
5	3004	3.515457722274	1008
5	3010	3.516955239381	1008
5	3016	3.51831331937	1008
5	3025	3.529003564993	1008
5	3068	3.551621940363	1008
5	3075	3.553541270923	1008
5	3087	3.567400965326	1008
5	3099	3.568628787081	1008
5	3105	3.57194663929	1008
5	3111	3.574168511932	1008
5	3144	3.597725991407	1008
5	3154	3.603931994532	1008
5	3169	3.617286360271	1008
5	3178	3.623399502394	1008
5	3196	3.634838933569	1008
5	3205	3.644077276799	1008
5	3223	3.650308321498	1008
5	3235	3.651703821499	1008
5	3247	3.66379109376	1008
5	3280	3.688015058879	1008
5	3292	3.693620897597	1008
5	3301	3.694690950584	1008
5	3307	3.695955464272	1008
5	3322	3.699650729819	1008
5	3332	3.701773298292	1008
5	3356	3.719591067181	1008
5	3374	3.737841578073	1008
5	3383	3.743823774056	1008
5	3395	3.75790838679	1008
5	3401	3.76334934781	1008
5	3413	3.771692657182	1008
5	3425	3.775320594839	1008
5	3431	3.779218396495	1008
5	3449	3.788136024347	1008
5	3455	3.788182438225	1008
5	3464	3.790543086489	1008
5	3470	3.791561543421	1008
5	3486	3.817195870537	1008
5	3492	3.82148289208	1008
5	3504	3.83105167379	1008
5	3510	3.834782378547	1008
5	3540	3.85996819969	1008
5	3558	3.885479366529	1008
5	3591	3.904315026784	1008
5	3597	3.907242182822	1008
5	3603	3.909421133434	1008
5	3637	3.940150660411	1008
5	3643	3.941447213213	1008
5	3649	3.943487898279	1008
5	3661	3.947840191913	1008
5	3667	3.949206519801	1008
5	3685	3.959284521818	1008
5	3721	3.991642940065	1008
5	3758	4.028679705732	1008
5	3770	4.034870286402	1008
5	3782	4.042895870612	1008
5	3788	4.043683828834	1008
5	3800	4.046485993306	1008
5	3824	4.069937698566	1008
5	3848	4.089989537468	1008
5	3857	4.092268238558	1008
5	3915	4.112669725709	1008
5	3930	4.126498657942	1008
5	3939	4.135061991781	1008
5	3954	4.146719607224	1008
5	3963	4.148067623392	1008
5	3987	4.158638514799	1008
5	3999	4.169261116935	1008
5	4038	4.188360102292	1008
5	4060	4.213664112075	1008
5	4069	4.215931854276	1008
5	4081	4.223165585172	1008
5	4090	4.227644221912	1008
5	4099	4.241983359512	1008
5	4108	4.245671766785	1008
5	4114	4.248273247094	1008
5	4132	4.264495112127	1008
5	4159	4.281045696336	1008
5	4174	4.291286384571	1008
5	4180	4.291916697655	1008
5	4186	4.293235530957	1008
5	4202	4.304672172071	1008
5	4217	4.320894334354	1008
5	4238	4.336494886464	1008
5	4247	4.338652055522	1008
5	4265	4.362547133418	1008
5	4283	4.370955185924	1008
5	4289	4.375564044784	1008
5	4335	4.419634759807	1008
5	4398	4.459894332359	1008
5	4413	4.468577433576	1008
5	4431	4.479301736277	1008
5	4440	4.485710888133	1008
5	4452	4.486101855976	1008
5	4480	4.50037187287	1008
5	4489	4.505844974059	1008
5	4498	4.515315040048	1008
5	4504	4.517676501641	1008
5	4516	4.519154199724	1008
5	4528	4.522186484247	1008
5	4550	4.541202712729	1008
5	4599	4.557994787478	1008
5	4632	4.58307207413	1008
5	4693	4.613560995376	1008
5	4699	4.616248286901	1008
5	4741	4.648069774406	1008
5	4747	4.648437860914	1008
5	4786	4.677342893802	1008
5	4801	4.680693486261	1008
5	4810	4.686683547302	1008
5	4816	4.690161788529	1008
5	4822	4.692223836786	1008
5	4841	4.710773511293	1008
5	4853	4.719730844963	1008
5	4859	4.721235151315	1008
5	4865	4.726521700677	1008
5	4874	4.730237299386	1008
5	4880	4.732380487903	1008
5	4901	4.757511697274	1008
5	4913	4.765475469377	1008
5	4922	4.771122243092	1008
5	4943	4.786228995154	1008
5	5016	4.83644479888	1008
5	5025	4.84119518395	1008
5	5034	4.843377613655	1008
5	5040	4.846367280397	1008
5	5064	4.861209387554	1008
5	5085	4.879860886987	1008
5	5091	4.881380336319	1008
5	5106	4.89224406042	1008
5	5154	4.909664682702	1008
5	5188	4.941937715363	1008
5	5212	4.96460131084	1008
5	5245	4.984056750072	1008
5	5263	4.995162223947	1008
5	5300	5.012990777159	1008
5	5306	5.013682090568	1008
5	5354	5.049862504631	1008
5	5366	5.061616385606	1008
5	5384	5.071350882738	1008
5	5408	5.082635938792	1008
5	5414	5.083346197165	1008
5	5493	5.103783704359	28
5	5857	5.118927029534	1008
5	5945	5.122324571832	1008
5	5961	5.134538115275	1008
5	6075	5.152180913614	1008
5	6285	5.161732280842	1008
5	6291	5.163538608693	1008
5	6306	5.168355024249	1008
5	6560	5.203561004623	1008
5	6777	5.221153137744	1008
5	7079	5.238272197721	1008
5	7123	5.277144975156	1008
5	7149	5.286147040205	1008
5	7193	5.286476459377	1008
5	7983	5.322253656322	1008
5	8208	5.340147104916	1008
[...]
214	7784	5.309371538023	1058
214	7811	5.309460616085	14
214	7834	5.309791616085	86
214	7855	5.309880544803	14
214	7885	5.313433394754	1058
214	7912	5.313522472816	14
214	7936	5.313814472816	86
214	7958	5.313903401534	14
214	8021	5.329581329004	1058
214	8048	5.329670407066	14
214	8068	5.330494335784	1058
214	8095	5.330583413846	14
214	8118	5.330797413846	86
214	8139	5.330886342564	14
214	8162	5.331205420626	86
214	8183	5.331294349344	14
214	8255	5.354175032681	1058
214	8282	5.354264110743	14
214	8305	5.354595110743	86
214	8326	5.354684039461	14
214	8351	5.355585039461	1058
214	8378	5.355674117523	14
214	8401	5.355953117523	86
214	8422	5.356042046241	14
214	8456	5.357663258619	1058
214	8483	5.357752336681	14
214	8506	5.357940336681	86
214	8527	5.358029265399	14
214	8609	5.395723495303	1058
214	8636	5.395812573365	14
215	5565	5.104393730988	58
215	5590	5.10448280867	14
215	5705	5.105259785112	78
215	5726	5.105348715288	14
215	5749	5.106340715288	1058
215	5776	5.10642979297	14
215	5799	5.10659179297	86
215	5820	5.106680723146	14
215	5869	5.119009104673	1058
215	5896	5.119098182355	14
215	5919	5.119403182355	86
215	5940	5.119492112531	14
215	5993	5.142739607941	1058
215	6020	5.142828685623	14
215	6046	5.143133685623	86
215	6067	5.143222615799	14
215	6118	5.159280607884	1058
215	6145	5.159369685566	14
215	6165	5.160180615742	1058
215	6192	5.160269693424	14
215	6215	5.160444693424	86
215	6236	5.1605336236	14
215	6259	5.160891701282	86
215	6280	5.160980631458	14
215	6334	5.169518320387	1058
215	6361	5.169607398069	14
215	6384	5.169821398069	86
215	6405	5.169910328245	14
215	6467	5.191902217442	1058
215	6494	5.191991295124	14
215	6520	5.192309295124	86
215	6541	5.1923982253	14
215	6594	5.210945916203	1058
215	6621	5.211034992832	14
215	6644	5.211235992832	86
215	6665	5.211324921825	14
215	6685	5.212238921825	1058
215	6712	5.212327998454	14
215	6735	5.212489998454	86
215	6756	5.212578927447	14
215	6791	5.221748152133	1058
215	6818	5.221837228762	14
215	6844	5.222142228762	86
215	6865	5.222231157755	14
215	6909	5.236216989592	1058
215	6936	5.236306066221	14
215	6959	5.236559066221	86
215	6980	5.236647995214	14
215	7000	5.237535995214	1058
215	7027	5.237625071843	14
215	7053	5.237891071843	86
215	7074	5.237980000836	14
215	7161	5.286315776074	1058
215	7188	5.286404852703	14
215	7217	5.286618852703	86
215	7238	5.286707781696	14
215	7269	5.28989760622	1058
215	7296	5.289986682849	14
215	7319	5.290213682849	86
215	7340	5.290302611842	14
215	7365	5.292118045117	1058
215	7392	5.292207121746	14
215	7415	5.292447121746	86
215	7436	5.292536050739	14
215	7471	5.298526771269	1058
215	7498	5.298615847898	14
215	7521	5.298855847898	86
215	7542	5.298944776891	14
215	7579	5.302863437953	1058
215	7606	5.302952516015	14
215	7634	5.303802574128	1058
215	7661	5.30389165219	14
215	7684	5.30410565219	86
215	7705	5.304194580908	14
215	7728	5.30446165897	86
215	7749	5.304550587688	14
215	7784	5.309371538023	1058
215	7811	5.309460616085	14
215	7834	5.309791616085	86
215	7855	5.309880544803	14
215	7885	5.313433394754	1058
215	7912	5.313522472816	14
215	7936	5.313814472816	86
215	7958	5.313903401534	14
215	8021	5.329581329004	1058
215	8048	5.329670407066	14
215	8068	5.330494335784	1058
215	8095	5.330583413846	14
215	8118	5.330797413846	86
215	8139	5.330886342564	14
215	8162	5.331205420626	86
215	8183	5.331294349344	14
215	8255	5.354175032681	1058
215	8282	5.354264110743	14
215	8305	5.354595110743	86
215	8326	5.354684039461	14
215	8351	5.355585039461	1058
215	8378	5.355674117523	14
215	8401	5.355953117523	86
215	8422	5.356042046241	14
215	8456	5.357663258619	1058
215	8483	5.357752336681	14
215	8506	5.357940336681	86
215	8527	5.358029265399	14
215	8609	5.395723495303	1058
215	8636	5.395812573365	14
216	5565	5.104393730988	58
216	5590	5.10448280867	14
216	5705	5.105259785112	78
216	5726	5.105348715288	14
216	5749	5.106340715288	1058
216	5776	5.10642979297	14
216	5799	5.10659179297	86
216	5820	5.106680723146	14
216	5869	5.119009104673	1058
216	5896	5.119098182355	14
216	5919	5.119403182355	86
216	5940	5.119492112531	14
216	5993	5.142739607941	1058
216	6020	5.142828685623	14
216	6046	5.143133685623	86
216	6067	5.143222615799	14
216	6118	5.159280607884	1058
216	6145	5.159369685566	14
216	6165	5.160180615742	1058
216	6192	5.160269693424	14
216	6215	5.160444693424	86
216	6236	5.1605336236	14
216	6259	5.160891701282	86
216	6280	5.160980631458	14
216	6334	5.169518320387	1058
216	6361	5.169607398069	14
216	6384	5.169821398069	86
216	6405	5.169910328245	14
216	6467	5.191902217442	1058
216	6494	5.191991295124	14
216	6520	5.192309295124	86
216	6541	5.1923982253	14
216	6594	5.210945916203	1058
216	6621	5.211034992832	14
216	6644	5.211235992832	86
216	6665	5.211324921825	14
216	6685	5.212238921825	1058
216	6712	5.212327998454	14
216	6735	5.212489998454	86
216	6756	5.212578927447	14
216	6791	5.221748152133	1058
216	6818	5.221837228762	14
216	6844	5.222142228762	86
216	6865	5.222231157755	14
216	6909	5.236216989592	1058
216	6936	5.236306066221	14
216	6959	5.236559066221	86
216	6980	5.236647995214	14
216	7000	5.237535995214	1058
216	7027	5.237625071843	14
216	7053	5.237891071843	86
216	7074	5.237980000836	14
216	7161	5.286315776074	1058
216	7188	5.286404852703	14
216	7217	5.286618852703	86
216	7238	5.286707781696	14
216	7269	5.28989760622	1058
216	7296	5.289986682849	14
216	7319	5.290213682849	86
216	7340	5.290302611842	14
216	7365	5.292118045117	1058
216	7392	5.292207121746	14
216	7415	5.292447121746	86
216	7436	5.292536050739	14
216	7471	5.298526771269	1058
216	7498	5.298615847898	14
216	7521	5.298855847898	86
216	7542	5.298944776891	14
216	7579	5.302863437953	1058
216	7606	5.302952516015	14
216	7634	5.303802574128	1058
216	7661	5.30389165219	14
216	7684	5.30410565219	86
216	7705	5.304194580908	14
216	7728	5.30446165897	86
216	7749	5.304550587688	14
216	7784	5.309371538023	1058
216	7811	5.309460616085	14
216	7834	5.309791616085	86
216	7855	5.309880544803	14
216	7885	5.313433394754	1058
216	7912	5.313522472816	14
216	7936	5.313814472816	86
216	7958	5.313903401534	14
216	8021	5.329581329004	1058
216	8048	5.329670407066	14
216	8068	5.330494335784	1058
216	8095	5.330583413846	14
216	8118	5.330797413846	86
216	8139	5.330886342564	14
216	8162	5.331205420626	86
216	8183	5.331294349344	14
216	8255	5.354175032681	1058
216	8282	5.354264110743	14
216	8305	5.354595110743	86
216	8326	5.354684039461	14
216	8351	5.355585039461	1058
216	8378	5.355674117523	14
216	8401	5.355953117523	86
216	8422	5.356042046241	14
216	8456	5.357663258619	1058
216	8483	5.357752336681	14
216	8506	5.357940336681	86
216	8527	5.358029265399	14
216	8609	5.395723495303	1058
216	8636	5.395812573365	14
217	5565	5.104393730988	58
217	5590	5.10448280867	14
217	5705	5.105259785112	78
217	5726	5.105348715288	14
217	5749	5.106340715288	1058
217	5776	5.10642979297	14
217	5799	5.10659179297	86
217	5820	5.106680723146	14
217	5869	5.119009104673	1058
217	5896	5.119098182355	14
217	5919	5.119403182355	86
217	5940	5.119492112531	14
217	5993	5.142739607941	1058
217	6020	5.142828685623	14
217	6046	5.143133685623	86
217	6067	5.143222615799	14
217	6118	5.159280607884	1058
217	6145	5.159369685566	14
217	6165	5.160180615742	1058
217	6192	5.160269693424	14
217	6215	5.160444693424	86
217	6236	5.1605336236	14
217	6259	5.160891701282	86
217	6280	5.160980631458	14
217	6334	5.169518320387	1058
217	6361	5.169607398069	14
217	6384	5.169821398069	86
217	6405	5.169910328245	14
217	6467	5.191902217442	1058
217	6494	5.191991295124	14
217	6520	5.192309295124	86
217	6541	5.1923982253	14
217	6594	5.210945916203	1058
217	6621	5.211034992832	14
217	6644	5.211235992832	86
217	6665	5.211324921825	14
217	6685	5.212238921825	1058
217	6712	5.212327998454	14
217	6735	5.212489998454	86
217	6756	5.212578927447	14
217	6791	5.221748152133	1058
217	6818	5.221837228762	14
217	6844	5.222142228762	86
217	6865	5.222231157755	14
217	6909	5.236216989592	1058
217	6936	5.236306066221	14
217	6959	5.236559066221	86
217	6980	5.236647995214	14
217	7000	5.237535995214	1058
217	7027	5.237625071843	14
217	7053	5.237891071843	86
217	7074	5.237980000836	14
217	7161	5.286315776074	1058
217	7188	5.286404852703	14
217	7217	5.286618852703	86
217	7238	5.286707781696	14
217	7269	5.28989760622	1058
217	7296	5.289986682849	14
217	7319	5.290213682849	86
217	7340	5.290302611842	14
217	7365	5.292118045117	1058
217	7392	5.292207121746	14
217	7415	5.292447121746	86
217	7436	5.292536050739	14
217	7471	5.298526771269	1058
217	7498	5.298615847898	14
217	7521	5.298855847898	86
217	7542	5.298944776891	14
217	7579	5.302863437953	1058
217	7606	5.302952516015	14
217	7634	5.303802574128	1058
217	7661	5.30389165219	14
217	7684	5.30410565219	86
217	7705	5.304194580908	14
217	7728	5.30446165897	86
217	7749	5.304550587688	14
217	7784	5.309371538023	1058
217	7811	5.309460616085	14
217	7834	5.309791616085	86
217	7855	5.309880544803	14
217	7885	5.313433394754	1058
217	7912	5.313522472816	14
217	7936	5.313814472816	86
217	7958	5.313903401534	14
217	8021	5.329581329004	1058
217	8048	5.329670407066	14
217	8068	5.330494335784	1058
217	8095	5.330583413846	14
217	8118	5.330797413846	86
217	8139	5.330886342564	14
217	8162	5.331205420626	86
217	8183	5.331294349344	14
217	8255	5.354175032681	1058
217	8282	5.354264110743	14
217	8305	5.354595110743	86
217	8326	5.354684039461	14
217	8351	5.355585039461	1058
217	8378	5.355674117523	14
217	8401	5.355953117523	86
217	8422	5.356042046241	14
217	8456	5.357663258619	1058
217	8483	5.357752336681	14
217	8506	5.357940336681	86
217	8527	5.358029265399	14
217	8609	5.395723495303	1058
217	8636	5.395812573365	14
218	5567	5.104393750625	58
218	5728	5.105348734925	14
218	5751	5.106340734925	1058
218	5822	5.106680742783	14
218	5871	5.11900912431	1058
218	5942	5.119492132168	14
218	5995	5.142739627578	1058
218	6069	5.143222635436	14
218	6120	5.159280627521	1058
218	6167	5.160180635379	1058
218	6238	5.160533643237	14
218	6282	5.160980651095	14
218	6336	5.169518340024	1058
218	6407	5.169910347882	14
218	6469	5.191902237079	1058
218	6543	5.192398244937	14
218	6596	5.210945932688	1058
218	6667	5.21132493831	14
218	6687	5.21223893831	1058
218	6758	5.212578943932	14
218	6793	5.221748168618	1058
218	6867	5.22223117424	14
218	6911	5.236217006077	1058
218	6982	5.236648011699	14
218	7002	5.237536011699	1058
218	7076	5.237980017321	14
218	7163	5.286315792559	1058
218	7240	5.286707798181	14
218	7271	5.289897622705	1058
218	7342	5.290302628327	14
218	7367	5.292118061602	1058
218	7438	5.292536067224	14
218	7473	5.298526787754	1058
218	7544	5.298944793376	14
218	7581	5.302863453725	1058
218	7636	5.3038025899	1058
218	7707	5.30419459668	14
218	7751	5.30455060346	14
218	7786	5.309371553795	1058
218	7857	5.309880560575	14
218	7887	5.313433410526	1058
218	7960	5.313903417306	14
218	8023	5.329581344776	1058
218	8070	5.330494351556	1058
218	8141	5.330886358336	14
218	8185	5.331294365116	14
218	8257	5.354175048453	1058
218	8328	5.354684055233	14
218	8353	5.355585055233	1058
218	8424	5.356042062013	14
218	8458	5.357663274391	1058
218	8529	5.358029281171	14
218	8611	5.395723511075	1058
219	5585	5.104481750625	14
219	5694	5.105258727067	78
219	5771	5.106428734925	14
219	5789	5.106590734925	86
219	5891	5.11909712431	14
219	5909	5.11940212431	86
219	6015	5.142827627578	14
219	6036	5.143132627578	86
219	6140	5.159368627521	14
219	6187	5.160268635379	14
219	6205	5.160443635379	86
219	6249	5.160890643237	86
219	6356	5.169606340024	14
219	6374	5.169820340024	86
219	6489	5.191990237079	14
219	6510	5.192308237079	86
219	6616	5.211033932688	14
219	6634	5.211234932688	86
219	6707	5.21232693831	14
219	6725	5.21248893831	86
219	6813	5.221836168618	14
219	6834	5.222141168618	86
219	6931	5.236305006077	14
219	6949	5.236558006077	86
219	7022	5.237624011699	14
219	7043	5.237890011699	86
219	7183	5.286403792559	14
219	7207	5.286617792559	86
219	7291	5.289985622705	14
219	7309	5.290212622705	86
219	7387	5.292206061602	14
219	7405	5.292446061602	86
219	7493	5.298614787754	14
219	7511	5.298854787754	86
219	7601	5.302951453725	14
219	7656	5.3038905899	14
219	7674	5.3041045899	86
219	7718	5.30446059668	86
219	7806	5.309459553795	14
219	7824	5.309790553795	86
219	7907	5.313521410526	14
219	7926	5.313813410526	86
219	8043	5.329669344776	14
219	8090	5.330582351556	14
219	8108	5.330796351556	86
219	8152	5.331204358336	86
219	8277	5.354263048453	14
219	8295	5.354594048453	86
219	8373	5.355673055233	14
219	8391	5.355952055233	86
219	8478	5.357751274391	14
219	8496	5.357939274391	86
219	8631	5.395811511075	14
220	5588	5.104482754554	14
220	5635	5.104835723138	14
220	5654	5.104989723138	78
220	5697	5.105259730996	78
220	5774	5.106429738854	14
220	5792	5.106591738854	86
220	5894	5.119098128239	14
220	5912	5.119403128239	86
220	6018	5.142828631507	14
220	6039	5.143133631507	86
220	6143	5.15936963145	14
220	6190	5.160269639308	14
220	6208	5.160444639308	86
220	6252	5.160891647166	86
220	6359	5.169607343953	14
220	6377	5.169821343953	86
220	6492	5.191991241008	14
220	6513	5.192309241008	86
220	6619	5.211034935499	14
220	6637	5.211235935499	86
220	6710	5.212327941121	14
220	6728	5.212489941121	86
220	6816	5.221837171429	14
220	6837	5.222142171429	86
220	6934	5.236306008888	14
220	6952	5.236559008888	86
220	7025	5.23762501451	14
220	7046	5.23789101451	86
220	7186	5.28640479537	14
220	7210	5.28661879537	86
220	7294	5.289986625516	14
220	7312	5.290213625516	86
220	7390	5.292207064413	14
220	7408	5.292447064413	86
220	7496	5.298615790565	14
220	7514	5.298855790565	86
220	7604	5.302952457115	14
220	7659	5.30389159329	14
220	7677	5.30410559329	86
220	7721	5.30446160007	86
220	7809	5.309460557185	14
220	7827	5.309791557185	86
220	7910	5.313522413916	14
220	7929	5.313814413916	86
220	8046	5.329670348166	14
220	8093	5.330583354946	14
220	8111	5.330797354946	86
220	8155	5.331205361726	86
220	8280	5.354264051843	14
220	8298	5.354595051843	86
220	8376	5.355674058623	14
220	8394	5.355953058623	86
220	8481	5.357752277781	14
220	8499	5.357940277781	86
220	8634	5.395812514465	14
221	5633	5.104835523563	14
221	5652	5.104989523563	78
222	5633	5.104835523563	14
222	5652	5.104989523563	78
223	5633	5.104835523563	14
223	5652	5.104989523563	78
224	5633	5.104835523563	14
224	5652	5.104989523563	78
225	5657	5.104989723138	28
225	5700	5.105259730996	28
226	5657	5.104989723138	1
226	5700	5.105259730996	2
vector 227 RoutingScenario.node[0].app[0] throughput:vector ETV
attr source throughput(packetReceived)
attr title "throughput, vector"
attr unit bps
227	8640	0.1	0
227	8640	0.2	0
227	8640	0.3	0
227	8640	0.4	0
227	8640	0.5	0
227	8640	0.6	0
227	8640	0.7	0
227	8640	0.8	0
227	8640	0.9	0
227	8640	1	0
227	8640	1.1	0
227	8640	1.2	0
227	8640	1.3	0
227	8640	1.4	0
227	8640	1.5	0
227	8640	1.6	0
227	8640	1.7	0
227	8640	1.8	0
227	8640	1.9	0
227	8640	2	0
227	8640	2.1	0
227	8640	2.2	0
227	8640	2.3	0
227	8640	2.4	0
227	8640	2.5	0
227	8640	2.6	0
227	8640	2.7	0
227	8640	2.8	0
227	8640	2.9	0
227	8640	3	0
227	8640	3.1	0
227	8640	3.2	0
227	8640	3.3	0
227	8640	3.4	0
227	8640	3.5	0
227	8640	3.6	0
227	8640	3.7	0
227	8640	3.8	0
227	8640	3.9	0
227	8640	4	0
227	8640	4.1	0
227	8640	4.2	0
227	8640	4.3	0
227	8640	4.4	0
227	8640	4.5	0
227	8640	4.6	0
227	8640	4.7	0
227	8640	4.8	0
227	8640	4.9	0
227	8640	5	0
227	8640	5.1	0
227	8640	5.2	0
227	8640	5.3	0
227	8640	5.396025511075	0
vector 228 RoutingScenario.node[1].app[0] throughput:vector ETV
attr source throughput(packetReceived)
attr title "throughput, vector"
attr unit bps
228	8640	0.1	0
228	8640	0.2	0
228	8640	0.3	0
228	8640	0.4	0
228	8640	0.5	0
228	8640	0.6	0
228	8640	0.7	0
228	8640	0.8	0
228	8640	0.9	0
228	8640	1	0
228	8640	1.1	0
228	8640	1.2	0
228	8640	1.3	0
228	8640	1.4	0
228	8640	1.5	0
228	8640	1.6	0
228	8640	1.7	0
228	8640	1.8	0
228	8640	1.9	0
228	8640	2	0
228	8640	2.1	0
228	8640	2.2	0
228	8640	2.3	0
228	8640	2.4	0
228	8640	2.5	0
228	8640	2.6	0
228	8640	2.7	0
228	8640	2.8	0
228	8640	2.9	0
228	8640	3	0
228	8640	3.1	0
228	8640	3.2	0
228	8640	3.3	0
228	8640	3.4	0
228	8640	3.5	0
228	8640	3.6	0
228	8640	3.7	0
228	8640	3.8	0
228	8640	3.9	0
228	8640	4	0
228	8640	4.1	0
228	8640	4.2	0
228	8640	4.3	0
228	8640	4.4	0
228	8640	4.5	0
228	8640	4.6	0
228	8640	4.7	0
228	8640	4.8	0
228	8640	4.9	0
228	8640	5	0
228	8640	5.1	0
228	8640	5.2	0
228	8640	5.3	0
228	8640	5.396025511075	0
vector 229 RoutingScenario.node[2].app[0] throughput:vector ETV
attr source throughput(packetReceived)
attr title "throughput, vector"
attr unit bps
229	8640	0.1	0
229	8640	0.2	0
229	8640	0.3	0
229	8640	0.4	0
229	8640	0.5	0
229	8640	0.6	0
229	8640	0.7	0
229	8640	0.8	0
229	8640	0.9	0
229	8640	1	0
229	8640	1.1	0
229	8640	1.2	0
229	8640	1.3	0
229	8640	1.4	0
229	8640	1.5	0
229	8640	1.6	0
229	8640	1.7	0
229	8640	1.8	0
229	8640	1.9	0
229	8640	2	0
229	8640	2.1	0
229	8640	2.2	0
229	8640	2.3	0
229	8640	2.4	0
229	8640	2.5	0
229	8640	2.6	0
229	8640	2.7	0
229	8640	2.8	0
229	8640	2.9	0
229	8640	3	0
229	8640	3.1	0
229	8640	3.2	0
229	8640	3.3	0
229	8640	3.4	0
229	8640	3.5	0
229	8640	3.6	0
229	8640	3.7	0
229	8640	3.8	0
229	8640	3.9	0
229	8640	4	0
229	8640	4.1	0
229	8640	4.2	0
229	8640	4.3	0
229	8640	4.4	0
229	8640	4.5	0
229	8640	4.6	0
229	8640	4.7	0
229	8640	4.8	0
229	8640	4.9	0
229	8640	5	0
229	8640	5.1	0
229	8640	5.2	0
229	8640	5.3	0
229	8640	5.396025511075	0
vector 230 RoutingScenario.node[3].app[0] throughput:vector ETV
attr source throughput(packetReceived)
attr title "throughput, vector"
attr unit bps
230	8640	0.1	0
230	8640	0.2	0
230	8640	0.3	0
230	8640	0.4	0
230	8640	0.5	0
230	8640	0.6	0
230	8640	0.7	0
230	8640	0.8	0
230	8640	0.9	0
230	8640	1	0
230	8640	1.1	0
230	8640	1.2	0
230	8640	1.3	0
230	8640	1.4	0
230	8640	1.5	0
230	8640	1.6	0
230	8640	1.7	0
230	8640	1.8	0
230	8640	1.9	0
230	8640	2	0
230	8640	2.1	0
230	8640	2.2	0
230	8640	2.3	0
230	8640	2.4	0
230	8640	2.5	0
230	8640	2.6	0
230	8640	2.7	0
230	8640	2.8	0
230	8640	2.9	0
230	8640	3	0
230	8640	3.1	0
230	8640	3.2	0
230	8640	3.3	0
230	8640	3.4	0
230	8640	3.5	0
230	8640	3.6	0
230	8640	3.7	0
230	8640	3.8	0
230	8640	3.9	0
230	8640	4	0
230	8640	4.1	0
230	8640	4.2	0
230	8640	4.3	0
230	8640	4.4	0
230	8640	4.5	0
230	8640	4.6	0
230	8640	4.7	0
230	8640	4.8	0
230	8640	4.9	0
230	8640	5	0
230	8640	5.1	0
230	8640	5.2	0
230	8640	5.3	0
230	8640	5.396025511075	0
vector 231 RoutingScenario.node[4].app[0] throughput:vector ETV
attr source throughput(packetReceived)
attr title "throughput, vector"
attr unit bps
231	8640	0.1	0
231	8640	0.2	0
231	8640	0.3	0
231	8640	0.4	0
231	8640	0.5	0
231	8640	0.6	0
231	8640	0.7	0
231	8640	0.8	0
231	8640	0.9	0
231	8640	1	0
231	8640	1.1	0
231	8640	1.2	0
231	8640	1.3	0
231	8640	1.4	0
231	8640	1.5	0
231	8640	1.6	0
231	8640	1.7	0
231	8640	1.8	0
231	8640	1.9	0
231	8640	2	0
231	8640	2.1	0
231	8640	2.2	0
231	8640	2.3	0
231	8640	2.4	0
231	8640	2.5	0
231	8640	2.6	0
231	8640	2.7	0
231	8640	2.8	0
231	8640	2.9	0
231	8640	3	0
231	8640	3.1	0
231	8640	3.2	0
231	8640	3.3	0
231	8640	3.4	0
231	8640	3.5	0
231	8640	3.6	0
231	8640	3.7	0
231	8640	3.8	0
231	8640	3.9	0
231	8640	4	0
231	8640	4.1	0
231	8640	4.2	0
231	8640	4.3	0
231	8640	4.4	0
231	8640	4.5	0
231	8640	4.6	0
231	8640	4.7	0
231	8640	4.8	0
231	8640	4.9	0
231	8640	5	0
231	8640	5.1	0
231	8640	5.2	0
231	8640	5.3	0
231	8640	5.396025511075	0
vector 232 RoutingScenario.node[5].app[0] throughput:vector ETV
attr source throughput(packetReceived)
attr title "throughput, vector"
attr unit bps
232	8640	0.1	0
232	8640	0.2	0
232	8640	0.3	0
232	8640	0.4	0
232	8640	0.5	0
232	8640	0.6	0
232	8640	0.7	0
232	8640	0.8	0
232	8640	0.9	0
232	8640	1	0
232	8640	1.1	0
232	8640	1.2	0
232	8640	1.3	0
232	8640	1.4	0
232	8640	1.5	0
232	8640	1.6	0
232	8640	1.7	0
232	8640	1.8	0
232	8640	1.9	0
232	8640	2	0
232	8640	2.1	0
232	8640	2.2	0
232	8640	2.3	0
232	8640	2.4	0
232	8640	2.5	0
232	8640	2.6	0
232	8640	2.7	0
232	8640	2.8	0
232	8640	2.9	0
232	8640	3	0
232	8640	3.1	0
232	8640	3.2	0
232	8640	3.3	0
232	8640	3.4	0
232	8640	3.5	0
232	8640	3.6	0
232	8640	3.7	0
232	8640	3.8	0
232	8640	3.9	0
232	8640	4	0
232	8640	4.1	0
232	8640	4.2	0
232	8640	4.3	0
232	8640	4.4	0
232	8640	4.5	0
232	8640	4.6	0
232	8640	4.7	0
232	8640	4.8	0
232	8640	4.9	0
232	8640	5	0
232	8640	5.1	0
232	8640	5.2	0
232	8640	5.3	0
232	8640	5.396025511075	0

