version 2
run Default-0-20210429-12:52:53-12263
attr configname Default
attr datetime 20210429-12:52:53
attr experiment Default
attr inifile omnetpp.ini
attr iterationvars ""
attr iterationvarsf ""
attr measurement ""
attr network RSUExampleScenario
attr processid 12263
attr repetition 0
attr replication #0
attr resultdir results
attr runnumber 0
attr seedset 0
param *.playgroundSizeX 2500m
param *.playgroundSizeY 2500m
param *.playgroundSizeZ 50m
param *.annotations.draw true
param *.obstacles.obstacles "xmldoc(\"config.xml\", \"//AnalogueModel[@type='SimpleObstacleShadowing']/obstacles\")"
param *.manager.updateInterval 1s
param *.manager.host "\"localhost\""
param *.manager.port 9999
param *.manager.autoShutdown true
param *.manager.launchConfig "xmldoc(\"erlangen.launchd.xml\")"
param *.rsu[0].mobility.x 2000
param *.rsu[0].mobility.y 2000
param *.rsu[0].mobility.z 3
param *.rsu[*].applType "\"TraCIDemoRSU11p\""
param *.rsu[*].appl.headerLength "80 bit"
param *.rsu[*].appl.sendBeacons false
param *.rsu[*].appl.dataOnSch false
param *.rsu[*].appl.beaconInterval 1s
param *.rsu[*].appl.beaconUserPriority 7
param *.rsu[*].appl.dataUserPriority 5
param *.rsu[*].nic.phy80211p.antennaOffsetZ "0 m"
param *.connectionManager.sendDirect true
param *.connectionManager.maxInterfDist 2600m
param *.connectionManager.drawMaxIntfDist false
param *.**.nic.mac1609_4.useServiceChannel false
param *.**.nic.mac1609_4.txPower 20mW
param *.**.nic.mac1609_4.bitrate 6Mbps
param *.**.nic.phy80211p.minPowerLevel -110dBm
param *.**.nic.phy80211p.useNoiseFloor true
param *.**.nic.phy80211p.noiseFloor -98dBm
param *.**.nic.phy80211p.decider "xmldoc(\"config.xml\")"
param *.**.nic.phy80211p.analogueModels "xmldoc(\"config.xml\")"
param *.**.nic.phy80211p.usePropagationDelay true
param *.**.nic.phy80211p.antenna "xmldoc(\"antenna.xml\", \"/root/Antenna[@id='monopole']\")"
param *.node[*].nic.phy80211p.antennaOffsetY "0 m"
param *.node[*].nic.phy80211p.antennaOffsetZ "1.895 m"
param *.node[*].applType "\"TraCIDemo11p\""
param *.node[*].appl.headerLength "80 bit"
param *.node[*].appl.sendBeacons false
param *.node[*].appl.dataOnSch false
param *.node[*].appl.beaconInterval 1s
param *.node[*].veinsmobility.x 0
param *.node[*].veinsmobility.y 0
param *.node[*].veinsmobility.z 0
param *.node[*].veinsmobility.setHostSpeed false
param *.node[*0].veinsmobility.accidentCount 1
param *.node[*0].veinsmobility.accidentStart 73s
param *.node[*0].veinsmobility.accidentDuration 50s

vector 0 RSUExampleScenario.node[0].veinsmobility posx ETV
vector 1 RSUExampleScenario.node[0].veinsmobility posy ETV
vector 2 RSUExampleScenario.node[0].veinsmobility speed ETV
vector 3 RSUExampleScenario.node[0].veinsmobility acceleration ETV
vector 4 RSUExampleScenario.node[0].veinsmobility co2emission ETV
vector 5 RSUExampleScenario.node[1].veinsmobility posx ETV
vector 6 RSUExampleScenario.node[1].veinsmobility posy ETV
vector 7 RSUExampleScenario.node[1].veinsmobility speed ETV
vector 8 RSUExampleScenario.node[1].veinsmobility acceleration ETV
vector 9 RSUExampleScenario.node[1].veinsmobility co2emission ETV
vector 10 RSUExampleScenario.node[2].veinsmobility posx ETV
vector 11 RSUExampleScenario.node[2].veinsmobility posy ETV
vector 12 RSUExampleScenario.node[2].veinsmobility speed ETV
vector 13 RSUExampleScenario.node[2].veinsmobility acceleration ETV
vector 14 RSUExampleScenario.node[2].veinsmobility co2emission ETV
vector 15 RSUExampleScenario.node[3].veinsmobility posx ETV
vector 16 RSUExampleScenario.node[3].veinsmobility posy ETV
vector 17 RSUExampleScenario.node[3].veinsmobility speed ETV
vector 18 RSUExampleScenario.node[3].veinsmobility acceleration ETV
vector 19 RSUExampleScenario.node[3].veinsmobility co2emission ETV
vector 20 RSUExampleScenario.node[4].veinsmobility posx ETV
vector 21 RSUExampleScenario.node[4].veinsmobility posy ETV
vector 22 RSUExampleScenario.node[4].veinsmobility speed ETV
vector 23 RSUExampleScenario.node[4].veinsmobility acceleration ETV
vector 24 RSUExampleScenario.node[4].veinsmobility co2emission ETV
vector 25 RSUExampleScenario.node[5].veinsmobility posx ETV
vector 26 RSUExampleScenario.node[5].veinsmobility posy ETV
vector 27 RSUExampleScenario.node[5].veinsmobility speed ETV
vector 28 RSUExampleScenario.node[5].veinsmobility acceleration ETV
vector 29 RSUExampleScenario.node[5].veinsmobility co2emission ETV
vector 30 RSUExampleScenario.node[6].veinsmobility posx ETV
vector 31 RSUExampleScenario.node[6].veinsmobility posy ETV
vector 32 RSUExampleScenario.node[6].veinsmobility speed ETV
vector 33 RSUExampleScenario.node[6].veinsmobility acceleration ETV
vector 34 RSUExampleScenario.node[6].veinsmobility co2emission ETV
vector 35 RSUExampleScenario.node[7].veinsmobility posx ETV
vector 36 RSUExampleScenario.node[7].veinsmobility posy ETV
vector 37 RSUExampleScenario.node[7].veinsmobility speed ETV
vector 38 RSUExampleScenario.node[7].veinsmobility acceleration ETV
vector 39 RSUExampleScenario.node[7].veinsmobility co2emission ETV
vector 40 RSUExampleScenario.node[8].veinsmobility posx ETV
vector 41 RSUExampleScenario.node[8].veinsmobility posy ETV
vector 42 RSUExampleScenario.node[8].veinsmobility speed ETV
vector 43 RSUExampleScenario.node[8].veinsmobility acceleration ETV
vector 44 RSUExampleScenario.node[8].veinsmobility co2emission ETV
vector 45 RSUExampleScenario.node[9].veinsmobility posx ETV
vector 46 RSUExampleScenario.node[9].veinsmobility posy ETV
vector 47 RSUExampleScenario.node[9].veinsmobility speed ETV
vector 48 RSUExampleScenario.node[9].veinsmobility acceleration ETV
vector 49 RSUExampleScenario.node[9].veinsmobility co2emission ETV
vector 50 RSUExampleScenario.node[10].veinsmobility posx ETV
vector 51 RSUExampleScenario.node[10].veinsmobility posy ETV
vector 52 RSUExampleScenario.node[10].veinsmobility speed ETV
vector 53 RSUExampleScenario.node[10].veinsmobility acceleration ETV
vector 54 RSUExampleScenario.node[10].veinsmobility co2emission ETV
vector 55 RSUExampleScenario.node[11].veinsmobility posx ETV
vector 56 RSUExampleScenario.node[11].veinsmobility posy ETV
vector 57 RSUExampleScenario.node[11].veinsmobility speed ETV
vector 58 RSUExampleScenario.node[11].veinsmobility acceleration ETV
vector 59 RSUExampleScenario.node[11].veinsmobility co2emission ETV
vector 60 RSUExampleScenario.node[12].veinsmobility posx ETV
vector 61 RSUExampleScenario.node[12].veinsmobility posy ETV
vector 62 RSUExampleScenario.node[12].veinsmobility speed ETV
vector 63 RSUExampleScenario.node[12].veinsmobility acceleration ETV
vector 64 RSUExampleScenario.node[12].veinsmobility co2emission ETV
vector 65 RSUExampleScenario.node[13].veinsmobility posx ETV
vector 66 RSUExampleScenario.node[13].veinsmobility posy ETV
vector 67 RSUExampleScenario.node[13].veinsmobility speed ETV
vector 68 RSUExampleScenario.node[13].veinsmobility acceleration ETV
vector 69 RSUExampleScenario.node[13].veinsmobility co2emission ETV
vector 70 RSUExampleScenario.node[14].veinsmobility posx ETV
vector 71 RSUExampleScenario.node[14].veinsmobility posy ETV
vector 72 RSUExampleScenario.node[14].veinsmobility speed ETV
vector 73 RSUExampleScenario.node[14].veinsmobility acceleration ETV
vector 74 RSUExampleScenario.node[14].veinsmobility co2emission ETV
vector 75 RSUExampleScenario.node[15].veinsmobility posx ETV
vector 76 RSUExampleScenario.node[15].veinsmobility posy ETV
vector 77 RSUExampleScenario.node[15].veinsmobility speed ETV
vector 78 RSUExampleScenario.node[15].veinsmobility acceleration ETV
vector 79 RSUExampleScenario.node[15].veinsmobility co2emission ETV
vector 80 RSUExampleScenario.node[16].veinsmobility posx ETV
vector 81 RSUExampleScenario.node[16].veinsmobility posy ETV
vector 82 RSUExampleScenario.node[16].veinsmobility speed ETV
vector 83 RSUExampleScenario.node[16].veinsmobility acceleration ETV
vector 84 RSUExampleScenario.node[16].veinsmobility co2emission ETV
vector 85 RSUExampleScenario.node[17].veinsmobility posx ETV
vector 86 RSUExampleScenario.node[17].veinsmobility posy ETV
vector 87 RSUExampleScenario.node[17].veinsmobility speed ETV
vector 88 RSUExampleScenario.node[17].veinsmobility acceleration ETV
vector 89 RSUExampleScenario.node[17].veinsmobility co2emission ETV
vector 90 RSUExampleScenario.node[18].veinsmobility posx ETV
vector 91 RSUExampleScenario.node[18].veinsmobility posy ETV
vector 92 RSUExampleScenario.node[18].veinsmobility speed ETV
vector 93 RSUExampleScenario.node[18].veinsmobility acceleration ETV
vector 94 RSUExampleScenario.node[18].veinsmobility co2emission ETV
vector 95 RSUExampleScenario.node[19].veinsmobility posx ETV
vector 96 RSUExampleScenario.node[19].veinsmobility posy ETV
vector 97 RSUExampleScenario.node[19].veinsmobility speed ETV
vector 98 RSUExampleScenario.node[19].veinsmobility acceleration ETV
vector 99 RSUExampleScenario.node[19].veinsmobility co2emission ETV
vector 100 RSUExampleScenario.node[20].veinsmobility posx ETV
vector 101 RSUExampleScenario.node[20].veinsmobility posy ETV
vector 102 RSUExampleScenario.node[20].veinsmobility speed ETV
vector 103 RSUExampleScenario.node[20].veinsmobility acceleration ETV
vector 104 RSUExampleScenario.node[20].veinsmobility co2emission ETV
vector 105 RSUExampleScenario.node[21].veinsmobility posx ETV
vector 106 RSUExampleScenario.node[21].veinsmobility posy ETV
vector 107 RSUExampleScenario.node[21].veinsmobility speed ETV
vector 108 RSUExampleScenario.node[21].veinsmobility acceleration ETV
vector 109 RSUExampleScenario.node[21].veinsmobility co2emission ETV
vector 110 RSUExampleScenario.node[22].veinsmobility posx ETV
vector 111 RSUExampleScenario.node[22].veinsmobility posy ETV
vector 112 RSUExampleScenario.node[22].veinsmobility speed ETV
vector 113 RSUExampleScenario.node[22].veinsmobility acceleration ETV
vector 114 RSUExampleScenario.node[22].veinsmobility co2emission ETV
vector 115 RSUExampleScenario.node[23].veinsmobility posx ETV
vector 116 RSUExampleScenario.node[23].veinsmobility posy ETV
vector 117 RSUExampleScenario.node[23].veinsmobility speed ETV
vector 118 RSUExampleScenario.node[23].veinsmobility acceleration ETV
vector 119 RSUExampleScenario.node[23].veinsmobility co2emission ETV
vector 120 RSUExampleScenario.node[24].veinsmobility posx ETV
vector 121 RSUExampleScenario.node[24].veinsmobility posy ETV
vector 122 RSUExampleScenario.node[24].veinsmobility speed ETV
vector 123 RSUExampleScenario.node[24].veinsmobility acceleration ETV
vector 124 RSUExampleScenario.node[24].veinsmobility co2emission ETV
vector 125 RSUExampleScenario.node[25].veinsmobility posx ETV
vector 126 RSUExampleScenario.node[25].veinsmobility posy ETV
vector 127 RSUExampleScenario.node[25].veinsmobility speed ETV
vector 128 RSUExampleScenario.node[25].veinsmobility acceleration ETV
vector 129 RSUExampleScenario.node[25].veinsmobility co2emission ETV
vector 130 RSUExampleScenario.node[26].veinsmobility posx ETV
vector 131 RSUExampleScenario.node[26].veinsmobility posy ETV
vector 132 RSUExampleScenario.node[26].veinsmobility speed ETV
vector 133 RSUExampleScenario.node[26].veinsmobility acceleration ETV
vector 134 RSUExampleScenario.node[26].veinsmobility co2emission ETV
vector 135 RSUExampleScenario.node[27].veinsmobility posx ETV
vector 136 RSUExampleScenario.node[27].veinsmobility posy ETV
vector 137 RSUExampleScenario.node[27].veinsmobility speed ETV
vector 138 RSUExampleScenario.node[27].veinsmobility acceleration ETV
vector 139 RSUExampleScenario.node[27].veinsmobility co2emission ETV
vector 140 RSUExampleScenario.node[28].veinsmobility posx ETV
vector 141 RSUExampleScenario.node[28].veinsmobility posy ETV
vector 142 RSUExampleScenario.node[28].veinsmobility speed ETV
0	2	1	2414.9014220153
0	3	2	2412.0282535023
0	4	3	2407.4342728612
0	5	4	2402.6086066295
0	6	5	2396.4772731523
0	7	6	2388.9936340756
0	8	7	2380.1477414318
0	9	8	2370.3907178602
0	10	9	2360.5940696446
0	11	10	2350.7995842348
0	12	11	2341.2708833707
0	13	12	2334.6366129159
0	14	13	2337.3257176139
0	15	14	2348.033779236
0	16	15	2358.3838798164
0	17	16	2371.2667482783
0	18	17	2385.0765970631
0	19	18	2398.9334482658
0	20	19	2412.1005141728
0	21	20	2421.2294272239
0	22	21	2428.3581580287
0	23	22	2431.4842677426
0	24	23	2433.1510812886
0	25	24	2435.0916832259
0	26	25	2437.1837942706
0	27	26	2438.6311098614
0	28	27	2439.493332954
0	29	28	2440.5036566285
0	30	29	2441.5142423519
0	31	30	2442.5234576464
0	32	31	2443.5347174482
0	33	32	2444.5443338801
0	34	33	2445.5547874862
0	35	34	2446.5653555262
0	36	35	2447.5747403736
0	37	36	2448.5851489938
0	38	37	2449.5952608371
0	39	38	2450.6044293375
0	40	39	2449.6071928155
0	41	40	2448.4930197395
0	42	41	2447.3815831102
0	43	42	2446.269043122
0	44	43	2445.1550697257
0	45	44	2444.0417462798
0	46	45	2442.9279971885
0	47	46	2441.8160135102
0	48	47	2440.7015641138
0	49	48	2439.729439416
0	50	49	2438.7888426784
0	51	50	2437.9510015509
0	52	51	2432.9925663655
0	53	52	2422.7326257644
0	54	53	2409.6174558436
0	55	54	2395.7013020564
0	56	55	2381.773180643
0	57	56	2367.8405198362
0	58	57	2353.9249158007
0	59	58	2340.0277109306
0	60	59	2326.0886780111
0	61	60	2312.1511197068
0	62	61	2298.2022990504
0	63	62	2284.2692113587
0	64	63	2270.3464205746
0	65	64	2256.4260616292
0	66	65	2242.5469633227
0	67	66	2228.757595183
0	68	67	2214.9863320692
0	69	68	2201.7794289893
0	70	69	2188.5758066151
0	71	70	2175.6216554201
0	72	71	2163.6090469348
0	73	72	2152.3411156191
0	74	73	2144.648391265
0	76	74	2140.8043693526
0	77	75	2140.336586894
0	78	76	2140.336586894
0	79	77	2140.336586894
0	80	78	2140.336586894
0	81	79	2140.336586894
0	82	80	2140.336586894
0	83	81	2140.336586894
0	84	82	2140.336586894
0	85	83	2140.336586894
0	86	84	2140.336586894
0	203	85	2140.336586894
0	204	86	2140.336586894
1	2	1	1578.4416120471
1	3	2	1579.4966245303
1	4	3	1581.2776015168
1	5	4	1586.1653365996
1	6	5	1592.3755327258
1	7	6	1599.9554281244
1	8	7	1608.9150987146
1	9	8	1618.7976194127
1	10	9	1628.7202744158
1	11	10	1638.6407387946
1	12	11	1648.7675461909
1	13	12	1660.5960699767
1	14	13	1673.2848922312
1	15	14	1682.1975365924
1	16	15	1691.5315165371
1	17	16	1695.5081130955
1	18	17	1697.3293930618
1	19	18	1698.6747199958
1	20	19	1699.919754006
1	21	20	1700.7829536963
1	22	21	1701.4530110313
1	23	22	1709.5899059502
1	24	23	1720.5583866155
1	25	24	1733.3285341095
1	26	25	1747.0956885694
1	27	26	1760.9619820043
1	28	27	1774.8763079587
1	29	28	1788.7702507963
1	30	29	1802.6677973205
1	31	30	1816.5464977473
1	32	31	1830.4533141805
1	33	32	1844.3375310358
1	34	33	1858.2332606893
1	35	34	1872.1305640331
1	36	35	1886.011596147
1	37	36	1899.9067071518
1	38	37	1913.7977368925
1	39	38	1927.675793808
1	40	39	1941.580401483
1	41	40	1955.4867290193
1	42	41	1969.3589021461
1	43	42	1983.2448466253
1	44	43	1997.1486818986
1	45	44	2011.0444049472
1	46	45	2024.9454406025
1	47	46	2038.8244416118
1	48	47	2052.7342179846
1	49	48	2066.6348209372
1	50	49	2080.5318793301
1	51	50	2094.4096917808
1	52	51	2107.2071732581
1	53	52	2116.3190572336
1	54	53	2120.895698837
1	55	54	2120.5110300854
1	56	55	2120.0405958518
1	57	56	2119.5700082965
1	58	57	2119.099996848
1	59	58	2118.6306068469
1	60	59	2118.1598040676
1	61	60	2117.6890510954
1	62	61	2117.2179177264
1	63	62	2116.7473157523
1	64	63	2116.2770615658
1	65	64	2115.8068895163
1	66	65	2114.8203103533
1	67	66	2112.8648713706
1	68	67	2110.7060364326
1	69	68	2106.2268698318
1	70	69	2101.7488158951
1	71	70	2096.7045087302
1	72	71	2089.632875788
1	73	72	2082.9996225368
1	74	73	2078.4710371736
1	76	74	2076.2081221687
1	77	75	2075.932746022
1	78	76	2075.932746022
1	79	77	2075.932746022
1	80	78	2075.932746022
1	81	79	2075.932746022
1	82	80	2075.932746022
1	83	81	2075.932746022
1	84	82	2075.932746022
1	85	83	2075.932746022
1	86	84	2075.932746022
1	203	85	2075.932746022
1	204	86	2075.932746022
2	3	2	3.9572089270348
2	4	3	5.7922925953529
2	5	4	7.6194012491274
2	6	5	9.5894080545995
2	7	6	11.533503466331
2	8	7	13.45866683106
2	9	8	13.873021058196
2	10	9	13.987787734221
2	11	10	13.92303454956
2	12	11	13.997504883918
2	13	12	13.986970504746
2	14	13	13.974000451695
2	15	14	13.966933657241
2	16	15	13.964439535674
2	17	16	13.877743846299
2	18	17	13.974735511465
2	19	18	13.88522820021
2	20	19	11.645430462181
2	21	20	7.1454304621806
2	22	21	8.128459781473
2	23	22	10.168632420268
2	24	23	11.921145657817
2	25	24	13.867114105045
2	26	25	13.924484654304
2	27	26	13.926671634018
2	28	27	13.948109051017
2	29	28	13.94516021332
2	30	29	13.897055656491
2	31	30	13.903119715233
2	32	31	13.923641209456
2	33	32	13.994987558522
2	34	33	13.9058876184
2	35	34	13.941145035436
2	36	35	13.8791920826
2	37	36	13.902365801658
2	38	37	13.878026702786
2	39	38	13.956935045745
2	40	39	13.92491328812
2	41	40	13.958849653439
2	42	41	13.882952231898
2	43	42	13.933117556034
2	44	43	13.98676986591
2	45	44	13.999517729501
2	46	45	13.971493680503
2	47	46	13.94095851501
2	48	47	13.999193555582
2	49	48	13.965161470489
2	50	49	13.994297884656
2	51	50	13.986730675106
2	52	51	13.872849740863
2	53	52	13.961183319914
2	54	53	13.9137244428
2	55	54	13.901573128537
2	56	55	13.950123941202
2	57	56	13.982772746813
2	58	57	13.941036981791
2	59	58	13.881943564357
2	60	59	13.992219979041
2	61	60	13.98687957603
2	62	61	13.973419324872
2	63	62	13.96150352573
2	64	63	13.970661931748
2	65	64	13.939609162759
2	66	65	13.898751937284
2	67	66	13.918858662273
2	68	67	13.975558964037
2	69	68	13.957149247392
2	70	69	13.899562909035
2	71	70	13.924200822038
2	72	71	13.931738481743
2	73	72	11.387328994936
2	74	73	6.9356380551325
2	76	74	2.4356380551325
2	77	75	0
2	78	76	0
2	79	77	0
2	80	78	0
2	81	79	0
2	82	80	0
2	83	81	0
2	84	82	0
2	85	83	0
2	86	84	0
2	203	85	0
2	204	86	0
3	4	3	1.8350836683181
3	5	4	1.8271086537745
3	6	5	1.9700068054721
3	7	6	1.9440954117314
3	8	7	1.9251633647294
3	9	8	0.4143542271355
3	10	9	0.11476667602547
3	11	10	-0.064753184660804
3	12	11	0.074470334358047
3	13	12	-0.010534379172604
3	14	13	-0.012970053050667
3	15	14	-0.0070667944545857
3	16	15	-0.0024941215664143
3	17	16	-0.086695689375047
3	18	17	0.096991665165405
3	19	18	-0.089507311254273
3	20	19	-2.2397977380297
3	21	20	-4.5
3	22	21	0.9830293192924
3	23	22	2.0401726387953
3	24	23	1.752513237549
3	25	24	1.9459684472275
3	26	25	0.057370549259321
3	27	26	0.002186979714315
3	28	27	0.021437416998671
3	29	28	-0.0029488376970406
3	30	29	-0.048104556829204
3	31	30	0.0060640587424867
3	32	31	0.020521494222338
3	33	32	0.071346349066589
3	34	33	-0.089099940122106
3	35	34	0.035257417035755
3	36	35	-0.061952952835709
3	37	36	0.023173719057814
3	38	37	-0.024339098872151
3	39	38	0.078908342958893
3	40	39	-0.032021757625044
3	41	40	0.033936365318951
3	42	41	-0.075897421541159
3	43	42	0.050165324136614
3	44	43	0.053652309875471
3	45	44	0.012747863591649
3	46	45	-0.028024048998487
3	47	46	-0.03053516549291
3	48	47	0.058235040572471
3	49	48	-0.034032085093203
3	50	49	0.029136414167006
3	51	50	-0.0075672095501798
3	52	51	-0.11388093424262
3	53	52	0.088333579050376
3	54	53	-0.047458877114114
3	55	54	-0.012151314262301
3	56	55	0.048550812664908
3	57	56	0.03264880561037
3	58	57	-0.041735765021294
3	59	58	-0.059093417434488
3	60	59	0.11027641468448
3	61	60	-0.0053404030110684
3	62	61	-0.013460251158103
3	63	62	-0.011915799141862
3	64	63	0.0091584060178143
3	65	64	-0.031052768989467
3	66	65	-0.040857225474902
3	67	66	0.020106724989601
3	68	67	0.056700301764067
3	69	68	-0.018409716645255
3	70	69	-0.057586338357069
3	71	70	0.024637913003097
3	72	71	0.0075376597046866
3	73	72	-2.5444094868068
3	74	73	-4.4516909398036
3	76	74	-4.5
3	77	75	-2.4356380551325
3	78	76	0
3	79	77	0
3	80	78	0
3	81	79	0
3	82	80	0
3	83	81	0
3	84	82	0
3	85	83	0
3	86	84	0
3	203	85	0
3	204	86	0
4	4	3	3.9690439751639
4	5	4	4.8734986088453
4	6	5	6.2068327255978
4	7	6	7.2118621755177
4	8	7	8.2287933875323
4	9	8	3.4112383357952
4	10	9	2.4244807387756
4	11	10	1.8137009457961
4	12	11	2.2898099022095
4	13	12	2.0020020998074
4	14	13	1.9925040957819
4	15	14	2.0116735925057
4	16	15	2.0268117196441
4	17	16	1.7364101498438
4	18	17	2.3629183476673
4	19	18	1.7276058639305
4	20	19	0.973
4	21	20	0.973
4	22	21	3.4774440698072
4	23	22	6.6973959009403
4	24	23	6.8765442140482
4	25	24	8.5286642556632
4	26	25	2.2236491057671
4	27	26	2.0386882258717
4	28	27	2.1055979632912
4	29	28	2.0233245928419
4	30	29	1.8672194964724
4	31	30	2.0492666044678
4	32	31	2.0999008389074
4	33	32	2.2789700697749
4	34	33	1.7306275687257
4	35	34	2.1512834063339
4	36	35	1.8192886759111
4	37	36	2.1065141555173
4	38	37	1.9449911116606
4	39	38	2.2998559325155
4	40	39	1.9237067331632
4	41	40	2.1487986226647
4	42	41	1.7729594306776
4	43	42	2.2004547983756
4	44	43	2.2183432843533
4	45	44	2.0818079966576
4	46	45	1.9415666085864
4	47	46	1.9302147663611
4	48	47	2.2352386500171
4	49	48	1.9207408360157
4	50	49	2.1365291927072
4	51	50	2.0119798780805
4	52	51	1.6451252139948
4	53	52	2.3320836469
4	54	53	1.8708886844175
4	55	54	1.9880803121436
4	56	55	2.1969689140422
4	57	56	2.1471035114894
4	58	57	1.8925905392227
4	59	58	1.8290939580462
4	60	59	2.40991582857
4	61	60	2.0195010664401
4	62	61	1.9907956428082
4	63	62	1.9948118842194
4	64	63	2.0666778150133
4	65	64	1.9283480713297
4	66	65	1.8916481160969
4	67	66	2.0979982875239
4	68	67	2.2273161571774
4	69	68	1.9725357764863
4	70	69	1.8356835777301
4	71	70	2.1137742701485
4	72	71	2.0571729397913
4	73	72	0.973
4	74	73	0.973
4	76	74	0.973
4	77	75	0.973
4	78	76	0.973
4	79	77	0.973
4	80	78	0.973
4	81	79	0.973
4	82	80	0.973
4	83	81	0.973
4	84	82	0.973
4	85	83	0.973
4	86	84	0.973
4	203	85	0.973
4	204	86	0.973
5	5	4	2414.8859801292
5	6	5	2411.9954222895
5	7	6	2407.2506839981
5	8	7	2402.2569066118
5	9	8	2395.8698252909
5	10	9	2388.1231925824
5	11	10	2379.0778566879
5	12	11	2369.2906204341
5	13	12	2359.488083822
5	14	13	2349.7077935553
5	15	14	2340.3004648316
5	16	15	2334.3789056268
5	17	16	2338.5475828971
5	18	17	2349.2015492482
5	19	18	2359.5620483048
5	20	19	2372.8198216532
5	21	20	2386.633729173
5	22	21	2399.7595735566
5	23	22	2412.4808578629
5	24	23	2421.433019019
5	25	24	2428.4196997195
5	26	25	2431.4571408761
5	27	26	2433.101477529
5	28	27	2435.0374044726
5	29	28	2437.1308163404
5	30	29	2438.6052903517
5	31	30	2439.4652954179
5	32	31	2440.4767654801
5	33	32	2441.4871002357
5	34	33	2442.4984231198
5	35	34	2443.5090043239
5	36	35	2444.5202320119
5	37	36	2445.5307945582
5	38	37	2446.5402185478
5	39	38	2447.5505371869
5	40	39	2448.5626761179
5	41	40	2449.5729500944
5	42	41	2450.585174586
5	43	42	2449.6294407988
5	44	43	2448.5173538727
5	45	44	2447.4047280391
5	46	45	2446.2922244321
5	47	46	2445.1793204525
5	48	47	2444.0644277572
5	49	48	2442.9518660975
5	50	49	2441.839934952
5	51	50	2440.7271224229
5	52	51	2439.7527993902
5	53	52	2438.8107460245
5	54	53	2438.0141290823
5	55	54	2433.1816210704
5	56	55	2423.0319440651
5	57	56	2409.9727913425
5	58	57	2396.0590303182
5	59	58	2382.1144390239
5	60	59	2368.1907177481
5	61	60	2354.2763434655
5	62	61	2340.3668168834
5	63	62	2326.4324601339
5	64	63	2312.520729268
5	65	64	2298.5987248435
5	66	65	2284.6693708017
5	67	66	2270.7738981416
5	68	67	2256.8651270719
5	69	68	2242.9778954339
5	70	69	2229.1841531853
5	71	70	2215.3984667171
5	72	71	2202.2004331633
5	73	72	2188.9984550966
5	74	73	2176.0225804548
5	76	74	2165.0862477322
5	77	75	2156.9403257007
5	78	76	2151.3368122651
5	79	77	2147.8690894726
5	80	78	2146.0211091622
5	81	79	2145.1741728145
5	82	80	2144.8360800471
5	83	81	2144.7141028749
5	84	82	2144.670640965
5	85	83	2144.6550765762
5	86	84	2144.6494404576
5	203	85	2144.6473989773
5	204	86	2144.6466756699
6	5	4	1578.4472822268
6	6	5	1579.5086799804
6	7	6	1581.463551743
6	8	7	1586.5215602648
6	9	8	1592.9907937245
6	10	9	1600.8370654406
6	11	10	1609.9987445669
6	12	11	1619.9118665503
6	13	12	1629.8404856874
6	14	13	1639.7465723418
6	15	14	1650.0098329587
6	16	15	1662.148083278
6	17	16	1674.2716219276
6	18	17	1683.2506608386
6	19	18	1692.5940183895
6	20	19	1695.7402485153
6	21	20	1697.5116994195
6	22	21	1698.7528356593
6	23	22	1699.9557180414
6	24	23	1700.8022046601
6	25	24	1701.4832690293
6	26	25	1709.4113973752
6	27	26	1720.2319686553
6	28	27	1732.9713523136
6	29	28	1746.7470668508
6	30	29	1760.5901810648
6	31	30	1774.4907365488
6	32	31	1788.4004444778
6	33	32	1802.2945396993
6	34	33	1816.2022236399
6	35	34	1830.0997080151
6	36	35	1844.0060828216
6	37	36	1857.9033106165
6	38	37	1871.7848810107
6	39	38	1885.6787546007
6	40	39	1899.5976607939
6	41	40	1913.4909201842
6	42	41	1927.4110030057
6	43	42	1941.3027177481
6	44	43	1955.1830074228
6	45	44	1969.0700233635
6	46	45	1982.9555137558
6	47	46	1996.8460013214
6	48	47	2010.7613106417
6	49	48	2024.6475256085
6	50	49	2038.5258709388
6	51	50	2052.4152170829
6	52	51	2066.2896837341
6	53	52	2080.2082634093
6	54	53	2094.0751158632
6	55	54	2106.8926880276
6	56	55	2116.1454103161
6	57	56	2120.8150716573
6	58	57	2120.523112664
6	59	58	2120.0521221459
6	60	59	2119.5818365309
6	61	60	2119.1118666185
6	62	61	2118.642060441
6	63	62	2118.1714156037
6	64	63	2117.7015349744
6	65	64	2117.2313073473
6	66	65	2116.7608314808
6	67	66	2116.2914999863
6	68	67	2115.8217193279
6	69	68	2114.881419857
6	70	69	2112.9253605921
6	71	70	2110.8458133154
6	72	71	2106.3696548454
6	73	72	2101.8921585809
6	74	73	2096.9405269679
6	76	74	2090.502480573
6	77	75	2085.7071048925
6	78	76	2082.4084050097
6	79	77	2080.3670113552
6	80	78	2079.279134525
6	81	79	2078.7805564702
6	82	80	2078.5815265961
6	83	81	2078.5097205611
6	84	82	2078.4841352208
6	85	83	2078.4749727109
6	86	84	2078.4716548165
6	203	85	2078.4704530295
6	204	86	2078.4700272297
7	6	5	4.0425376740037
7	7	6	5.9899797741635
7	8	7	7.995898233327
7	9	8	9.9805223184414
7	10	9	11.797888050693
7	11	10	13.711042579702
7	12	11	13.938882815507
7	13	12	13.987056018973
7	14	13	13.932265241607
7	15	14	13.936240355759
7	16	15	13.918232359637
7	17	16	13.996041114451
7	18	17	13.889637337967
7	19	18	13.98089693659
7	20	19	13.989995662286
7	21	20	13.940560950977
7	22	21	12.794838843339
7	23	22	11.462453259231
7	24	23	6.9895605474231
7	25	24	7.9862760086594
7	26	25	9.9020307991867
7	27	26	11.798978505989
7	28	27	13.751206467252
7	29	28	13.960779979175
7	30	29	13.910887940275
7	31	30	13.90559046577
7	32	31	13.957584948146
7	33	32	13.874683156386
7	34	33	13.907441225059
7	35	34	13.918528157957
7	36	35	13.895035590874
7	37	36	13.883235006297
7	38	37	13.871903220273
7	39	38	13.938900818934
7	40	39	13.921878620712
7	41	40	13.990435387138
7	42	41	13.90646901476
7	43	42	13.93737845731
7	44	43	13.876036780721
7	45	44	13.947464198375
7	46	45	13.885704967384
7	47	46	13.940949799435
7	48	47	13.970342723927
7	49	48	13.987590639221
7	50	49	13.913185551437
7	51	50	13.934231962233
7	52	51	13.937430094369
7	53	52	13.965824146585
7	54	53	13.918897172834
7	55	54	13.924771909455
7	56	55	13.966285604062
7	57	56	13.973171508994
7	58	57	13.978551438209
7	59	58	13.901260280323
7	60	59	13.934687188803
7	61	60	13.874057136604
7	62	61	13.892285811328
7	63	62	13.929109180849
7	64	63	13.879573362519
7	65	64	13.892359951755
7	66	65	13.989684698284
7	67	66	13.883007470635
7	68	67	13.893685072821
7	69	68	13.871678100268
7	70	69	13.873392615553
7	71	70	13.925930872245
7	72	71	13.946668972634
7	73	72	13.99407584908
7	74	73	13.937308383749
7	76	74	11.224682005702
7	77	75	8.0034127335028
7	78	76	5.2384528204732
7	79	77	3.0605194915111
7	80	78	1.5187486735884
7	81	79	0.62646581691962
7	82	80	0.23280738266739
7	83	81	0.086801851830444
7	84	82	0.029887615266199
7	85	83	0.011213438622004
7	86	84	0.0038906917810774
7	203	85	0.0014320497576761
7	204	86	0.00050836432089186
8	7	6	1.9474421001598
8	8	7	2.0059184591635
8	9	8	1.9846240851143
8	10	9	1.8173657322512
8	11	10	1.9131545290095
8	12	11	0.22784023580519
8	13	12	0.048173203465995
8	14	13	-0.054790777366142
8	15	14	0.0039751141518352
8	16	15	-0.018007996121888
8	17	16	0.077808754814324
8	18	17	-0.10640377648408
8	19	18	0.091259598622564
8	20	19	0.0090987256960933
8	21	20	-0.04943471130915
8	22	21	-1.1457221076374
8	23	22	-1.3323855841089
8	24	23	-4.4728927118075
8	25	24	0.99671546123639
8	26	25	1.9157547905273
8	27	26	1.8969477068027
8	28	27	1.9522279612627
8	29	28	0.20957351192326
8	30	29	-0.04989203890087
8	31	30	-0.0052974745049141
8	32	31	0.051994482376612
8	33	32	-0.082901791760232
8	34	33	0.032758068672846
8	35	34	0.011086932898033
8	36	35	-0.023492567082867
8	37	36	-0.011800584576557
8	38	37	-0.011331786024385
8	39	38	0.066997598661111
8	40	39	-0.017022198222113
8	41	40	0.068556766426191
8	42	41	-0.083966372378635
8	43	42	0.030909442550037
8	44	43	-0.061341676588636
8	45	44	0.071427417653613
8	46	45	-0.061759230990429
8	47	46	0.055244832050521
8	48	47	0.029392924492713
8	49	48	0.017247915293556
8	50	49	-0.074405087784399
8	51	50	0.021046410796698
8	52	51	0.0031981321354397
8	53	52	0.028394052216317
8	54	53	-0.046926973750814
8	55	54	0.0058747366210454
8	56	55	0.041513694606255
8	57	56	0.0068859049328598
8	58	57	0.00537992921425
8	59	58	-0.07729115788592
8	60	59	0.03342690848047
8	61	60	-0.060630052199121
8	62	61	0.018228674724231
8	63	62	0.036823369520718
8	64	63	-0.049535818330479
8	65	64	0.012786589236931
8	66	65	0.097324746528175
8	67	66	-0.10667722764891
8	68	67	0.010677602186334
8	69	68	-0.022006972553209
8	70	69	0.0017145152855669
8	71	70	0.052538256691768
8	72	71	0.020738100388552
8	73	72	0.047406876445748
8	74	73	-0.056767465330195
8	76	74	-2.7126263780472
8	77	75	-3.2212692721993
8	78	76	-2.7649599130296
8	79	77	-2.177933328962
8	80	78	-1.5417708179227
8	81	79	-0.89228285666883
8	82	80	-0.39365843425223
8	83	81	-0.14600553083694
8	84	82	-0.056914236564245
8	85	83	-0.018674176644195
8	86	84	-0.0073227468409267
8	203	85	-0.0024586420234013
8	204	86	-0.0009236854367842
9	7	6	4.2301091069722
9	8	7	5.4083752898229
9	9	8	6.4569285084612
9	10	9	6.9981297601067
9	11	10	8.3312879690391
9	12	11	2.7979710561013
9	13	12	2.1999068898786
9	14	13	1.8479489507835
9	15	14	2.0456752375859
9	16	15	1.9700834342329
9	17	16	2.3008941911239
9	18	17	1.6713998415398
9	19	18	2.3443796163748
9	20	19	2.0684991653284
9	21	20	1.8666807655476
9	22	21	0.973
9	23	22	0.973
9	24	23	0.973
9	25	24	3.4606837305329
9	26	25	6.2491012412678
9	27	26	7.2249976624897
9	28	27	8.4833334559796
9	29	28	2.7399513868753
9	30	29	1.8624749098178
9	31	30	2.0114464773396
9	32	31	2.2094024782537
9	33	32	1.7488491549044
9	34	33	2.1391830984499
9	35	34	2.0677073203107
9	36	35	1.9494556216079
9	37	36	1.9874420235442
9	38	37	1.9878900487606
9	39	38	2.2576592169992
9	40	39	1.9737468325477
9	41	40	2.2690195682005
9	42	41	1.7478792317758
9	43	42	2.1362624301313
9	44	43	1.8210593502992
9	45	44	2.2735620896008
9	46	45	1.8205017532084
9	47	46	2.2184149087562
9	48	47	2.1347710869545
9	49	48	2.09571843872
9	50	49	1.7804872022007
9	51	50	2.1027963153132
9	52	51	2.0431879927268
9	53	52	2.130914808802
9	54	53	1.8731409260279
9	55	54	2.0508691161144
9	56	55	2.1751242457588
9	57	56	2.0592874615074
9	58	57	2.0547737641243
9	59	58	1.76981763454
9	60	59	2.1444220061647
9	61	60	1.8232669183982
9	62	61	2.0888758596056
9	63	62	2.1552095693211
9	64	63	1.8608567629901
9	65	64	2.0706633054292
9	66	65	2.3659218813502
9	67	66	1.6699808125265
9	68	67	2.0637405098073
9	69	68	1.952179855427
9	70	69	2.0316574135967
9	71	70	2.2075986913449
9	72	71	2.1030929112895
9	73	72	2.1981233265337
9	74	73	1.8417575505901
9	76	74	0.973
9	77	75	0.973
9	78	76	0.973
9	79	77	0.973
9	80	78	0.973
9	81	79	0.973
9	82	80	0.973
9	83	81	0.973
9	84	82	1.1110318326026
9	85	83	1.1104904705916
9	86	84	1.1101808207542
9	203	85	1.1100682335442
9	204	86	1.1100244103288
10	8	7	2414.8643472421
10	9	8	2411.8465674154
10	10	9	2407.0751619121
10	11	10	2401.9577723495
10	12	11	2395.5213123298
10	13	12	2387.7087995239
10	14	13	2378.6681836499
10	15	14	2368.8875638929
10	16	15	2359.0940802299
10	17	16	2349.3054688028
10	18	17	2339.9685473356
10	19	18	2334.2867878722
10	20	19	2338.9957562579
10	21	20	2349.6279995053
10	22	21	2359.9784335992
10	23	22	2373.3643068899
10	24	23	2387.2008681716
10	25	24	2400.1536887399
10	26	25	2412.7316667335
10	27	26	2421.6016713441
10	28	27	2429.0399601221
10	29	28	2431.6610221431
10	30	29	2433.4058557115
10	31	30	2435.4296735448
10	32	31	2437.5228230509
10	33	32	2438.756280641
10	34	33	2439.6537604213
10	35	34	2440.6642783178
10	36	35	2441.6755611921
10	37	36	2442.6853143586
10	38	37	2443.6967313057
10	39	38	2444.7073265696
10	40	39	2445.7174198999
10	41	40	2446.7275010003
10	42	41	2447.7378254413
10	43	42	2448.7472062793
10	44	43	2449.7581317245
10	45	44	2450.5404722837
10	46	45	2449.4272590217
10	47	46	2448.3138521354
10	48	47	2447.1989267713
10	49	48	2446.0849040584
10	50	49	2444.9714588574
10	51	50	2443.8584054458
10	52	51	2442.7467989092
10	53	52	2441.6352596566
10	54	53	2440.5234483952
10	55	54	2439.5806660695
10	56	55	2438.6614484476
10	57	56	2437.5413712214
10	58	57	2431.7107585353
10	59	58	2420.7316073596
10	60	59	2407.4580038169
10	61	60	2393.5207243611
10	62	61	2379.5911449479
10	63	62	2365.6596589894
10	64	63	2351.7444545149
10	65	64	2337.8257790502
10	66	65	2323.9092159334
10	67	66	2309.9894765299
10	68	67	2296.0592282155
10	69	68	2282.136995537
10	70	69	2268.2108968691
10	71	70	2254.2822784163
10	72	71	2240.4303416072
10	73	72	2226.6215215843
10	74	73	2212.953557258
10	76	74	2199.7651579153
10	77	75	2186.5477305388
10	78	76	2174.8224009707
10	79	77	2166.0770859352
10	80	78	2159.487484612
10	81	79	2154.824213503
10	82	80	2151.8726298378
10	83	81	2150.2398645148
10	84	82	2149.4683597691
10	85	83	2149.1501423761
10	86	84	2149.0290637317
10	203	85	2148.9831979343
10	204	86	2148.966077899
11	8	7	1578.4552257108
11	9	8	1579.5633387128
11	10	9	1581.6413314342
11	11	10	1586.8245420624
11	12	11	1593.3437893409
11	13	12	1601.2567885192
11	14	13	1610.4136869162
11	15	14	1620.3201072989
11	16	15	1630.2395570464
11	17	16	1640.1540718898
11	18	17	1650.4347390141
11	19	18	1662.7028521439
11	20	19	1674.6335488679
11	21	20	1683.6352443621
11	22	21	1692.9695250774
11	23	22	1695.8216318619
11	24	23	1697.5653261989
11	25	24	1698.7901018811
11	26	25	1699.9794336949
11	27	26	1700.8181518642
11	28	27	1701.788230394
11	29	28	1710.753039781
11	30	29	1722.2349318657
11	31	30	1735.5526822675
11	32	31	1749.3266703309
11	33	32	1763.186685307
11	34	33	1777.0825019907
11	35	34	1790.9791157627
11	36	35	1804.8862494873
11	37	36	1818.7723467145
11	38	37	1832.6813242035
11	39	38	1846.5790019305
11	40	39	1860.4697770802
11	41	40	1874.3603840461
11	42	41	1888.2543374225
11	43	42	1902.1353143984
11	44	43	1916.0375327701
11	45	44	1929.931861192
11	46	45	1943.8262090031
11	47	46	1957.7229734948
11	48	47	1971.6386905648
11	49	48	1985.5431413744
11	50	49	1999.4403840834
11	51	50	2013.3327367529
11	52	51	2027.207030545
11	53	52	2041.0804845421
11	54	53	2054.9573335638
11	55	54	2068.8329062592
11	56	55	2082.7355048349
11	57	56	2096.5807325263
11	58	57	2108.9798980905
11	59	58	2117.2135342108
11	60	59	2120.9081227602
11	61	60	2120.4373792056
11	62	61	2119.9668957265
11	63	62	2119.496347853
11	64	63	2119.0263498994
11	65	64	2118.5562347108
11	66	65	2118.0861908691
11	67	66	2117.6160397446
11	68	67	2117.1455336735
11	69	68	2116.6752983369
11	70	69	2116.2049324233
11	71	70	2115.7344814017
11	72	71	2114.5201570345
11	73	72	2112.5619596243
11	74	73	2110.0166138643
11	76	74	2105.5437228698
11	77	75	2101.0609869184
11	78	76	2096.2340002563
11	79	77	2091.0857713781
11	80	78	2087.2065771259
11	81	79	2084.461383054
11	82	80	2082.7238323549
11	83	81	2081.7626491897
11	84	82	2081.3084765272
11	85	83	2081.1211469723
11	86	84	2081.0498698866
11	203	85	2081.0228694156
11	204	86	2081.0127911214
12	9	8	4.0617275998512
12	10	9	6.1353786575448
12	11	10	8.1828713404717
12	12	11	10.026246972497
12	13	12	11.901434952405
12	14	13	13.721968979915
12	15	14	13.873869230964
12	16	15	13.999992804453
12	17	16	13.936552683001
12	18	17	13.886342563913
12	19	18	13.998514430835
12	20	19	13.938965220305
12	21	20	13.888496056341
12	22	21	13.967085145169
12	23	22	13.876376160912
12	24	23	13.964508842546
12	25	24	12.653716818199
12	26	25	11.372411878541
12	27	26	6.8929555082147
12	28	27	8.5699720607291
12	29	28	10.636234545034
12	30	29	12.448710586525
12	31	30	13.94760661962
12	32	31	13.975882674009
12	33	32	13.903639049968
12	34	33	13.927307408415
12	35	34	13.957604700155
12	36	35	13.965432267999
12	37	36	13.979722868593
12	38	37	13.968205950868
12	39	38	13.958357583075
12	40	39	13.990213953683
12	41	40	13.96116246037
12	42	41	13.87217426707
12	43	42	13.928907136307
12	44	43	13.91250868235
12	45	44	13.890139907841
12	46	45	13.897425073599
12	47	46	13.887522510195
12	48	47	13.998793022018
12	49	48	13.991954407904
12	50	49	13.976053439889
12	51	50	13.973299305961
12	52	51	13.940658555902
12	53	52	13.936352438405
12	54	53	13.902674757137
12	55	54	13.893563919526
12	56	55	13.94932776426
12	57	56	13.899633844446
12	58	57	13.925941982139
12	59	58	13.902877053842
12	60	59	13.960713054
12	61	60	13.998597038973
12	62	61	13.882354206399
12	63	62	13.95430906767
12	64	63	13.922270264479
12	65	64	13.891137888967
12	66	65	13.873145520629
12	67	66	13.917398584501
12	68	67	13.96594609051
12	69	68	13.950499276761
12	70	69	13.958279004393
12	71	70	13.89578928089
12	72	71	13.884069890059
12	73	72	13.914340863999
12	74	73	13.98715202254
12	76	74	13.961519885908
12	77	75	13.972537927816
12	78	76	11.518704325983
12	79	77	9.0043358267357
12	80	78	6.5830967148054
12	81	79	4.4739947038985
12	82	80	2.6773091573394
12	83	81	1.3773913493654
12	84	82	0.59448997747028
12	85	83	0.22929469352049
12	86	84	0.086708385139125
12	203	85	0.032055767605343
12	204	86	0.011829998141423
13	10	9	2.0736510576936
13	11	10	2.0474926829268
13	12	11	1.8433756320248
13	13	12	1.8751879799087
13	14	13	1.8205340275099
13	15	14	0.15190025104874
13	16	15	0.12612357348902
13	17	16	-0.063440121451858
13	18	17	-0.050210119087716
13	19	18	0.11217186692171
13	20	19	-0.059549210530239
13	21	20	-0.050469163963571
13	22	21	0.078589088828302
13	23	22	-0.090708984257653
13	24	23	0.088132681634743
13	25	24	-1.3107920243471
13	26	25	-1.2813049396579
13	27	26	-4.4794563703267
13	28	27	1.6770165525144
13	29	28	2.0662624843046
13	30	29	1.8124760414916
13	31	30	1.4988960330944
13	32	31	0.028276054388844
13	33	32	-0.072243624040857
13	34	33	0.023668358447031
13	35	34	0.030297291739844
13	36	35	0.0078275678446502
13	37	36	0.014290600593668
13	38	37	-0.011516917725094
13	39	38	-0.009848367793019
13	40	39	0.031856370607857
13	41	40	-0.029051493313164
13	42	41	-0.088988193299155
13	43	42	0.056732869236729
13	44	43	-0.016398453956935
13	45	44	-0.022368774509523
13	46	45	0.0072851657588036
13	47	46	-0.0099025634047578
13	48	47	0.11127051182324
13	49	48	-0.0068386141140948
13	50	49	-0.015900968015194
13	51	50	-0.0027541339281019
13	52	51	-0.032640750058926
13	53	52	-0.0043061174964532
13	54	53	-0.033677681267728
13	55	54	-0.0091108376113702
13	56	55	0.055763844733592
13	57	56	-0.049693919813727
13	58	57	0.026308137692977
13	59	58	-0.023064928296954
13	60	59	0.057836000157986
13	61	60	0.037883984972723
13	62	61	-0.11624283257406
13	63	62	0.07195486127166
13	64	63	-0.032038803191389
13	65	64	-0.031132375511808
13	66	65	-0.017992368338163
13	67	66	0.044253063872457
13	68	67	0.048547506008763
13	69	68	-0.015446813749151
13	70	69	0.0077797276317142
13	71	70	-0.062489723502658
13	72	71	-0.011719390831422
13	73	72	0.030270973939913
13	74	73	0.07281115854159
13	76	74	-0.025632136631756
13	77	75	0.011018041907809
13	78	76	-2.4538336018333
13	79	77	-2.5143684992472
13	80	78	-2.4212391119302
13	81	79	-2.1091020109069
13	82	80	-1.7966855465591
13	83	81	-1.299917807974
13	84	82	-0.78290137189513
13	85	83	-0.3651952839498
13	86	84	-0.14258630838136
13	203	85	-0.054652617533782
13	204	86	-0.02022576946392
14	10	9	4.4934607714223
14	11	10	5.5931609271493
14	12	11	6.1409699278974
14	13	12	7.2183547368087
14	14	13	8.0311271208129
14	15	14	2.5338674256268
14	16	15	2.4643876269913
14	17	16	1.8192792430847
14	18	17	1.859207449473
14	19	18	2.4171230160978
14	20	19	1.8325593224595
14	21	20	1.8585333204172
14	22	21	2.3000123188032
14	23	22	1.7228784692314
14	24	23	2.3318184364479
14	25	24	0.973
14	26	25	0.973
14	27	26	0.973
14	28	27	5.045208641295
14	29	28	7.0307666820252
14	30	29	7.3264219484485
14	31	30	7.0718338310324
14	32	31	2.1316155178804
14	33	32	1.7869286544902
14	34	33	2.110855247359
14	35	34	2.136420109799
14	36	35	2.0616520584725
14	37	36	2.0849162945926
14	38	37	1.9968209733023
14	39	38	2.001454016172
14	40	39	2.1452526363971
14	41	40	1.9371225419493
14	42	41	1.7282964041284
14	43	42	2.2220207008841
14	44	43	1.97492166605
14	45	44	1.9527472314431
14	46	45	2.0527684664271
14	47	46	1.9942182270745
14	48	47	2.4141182065177
14	49	48	2.014962527671
14	50	49	1.9828358406422
14	51	50	2.026837295025
14	52	51	1.9231122180422
14	53	52	2.0178729354886
14	54	53	1.916064180902
14	55	54	1.9974692716152
14	56	55	2.2211269378754
14	57	56	1.8621279296722
14	58	57	2.119567698262
14	59	58	1.9516421539504
14	60	59	2.2294154726941
14	61	60	2.1665115245903
14	62	61	1.6379280607751
14	63	62	2.2761531014283
14	64	63	1.9234004351183
14	65	64	1.9235048896059
14	66	65	1.9657436637498
14	67	66	2.1788314611279
14	68	67	2.1987604712962
14	69	68	1.9818471345612
14	70	69	2.0607461168144
14	71	70	1.8189310419409
14	72	71	1.987796202425
14	73	72	2.1316003174375
14	74	73	2.2829700132446
14	76	74	1.9486617888491
14	77	75	2.0731360462797
14	78	76	0.973
14	79	77	0.973
14	80	78	0.973
14	81	79	0.973
14	82	80	0.973
14	83	81	0.973
14	84	82	0.973
14	85	83	0.973
14	86	84	0.973
14	203	85	1.111124157755
14	204	86	1.1105130149968
15	11	10	2414.8589683209
15	12	11	2411.9960360896
15	13	12	2407.3778635575
15	14	13	2402.3889462464
15	15	14	2395.9597585908
15	16	15	2388.1386573551
15	17	16	2378.9635076837
15	18	17	2369.1758480922
15	19	18	2359.3791317489
15	20	19	2349.5790357589
15	21	20	2340.1886634916
15	22	21	2334.3453764488
15	23	22	2338.7038573808
15	24	23	2349.3543107327
15	25	24	2359.7152620697
15	26	25	2373.026960911
15	27	26	2386.8407451585
15	28	27	2400.1474752324
15	29	28	2412.969097718
15	30	29	2421.7509544867
15	31	30	2429.1114918587
15	32	31	2431.6730661296
15	33	32	2433.411672057
15	34	33	2435.4307649552
15	35	34	2437.5230997546
15	36	35	2438.7572939112
15	37	36	2439.6547323165
15	38	37	2440.66536986
15	39	38	2441.6769130086
15	40	39	2442.6875185197
15	41	40	2443.6980744955
15	42	41	2444.7090275298
15	43	42	2445.7204816925
15	44	43	2446.7301598301
15	45	44	2447.7418187405
15	46	45	2448.7522372599
15	47	46	2449.762376091
15	48	47	2450.5357563136
15	49	48	2449.42378533
15	50	49	2448.3104985228
15	51	50	2447.1994917725
15	52	51	2446.0867187623
15	53	52	2444.9753890062
15	54	53	2443.8626517463
15	55	54	2442.7502307327
15	56	55	2441.6364067632
15	57	56	2440.5239309343
15	58	57	2439.5802207039
15	59	58	2438.6611464011
15	60	59	2437.5417553412
15	61	60	2431.6964266531
15	62	61	2420.7212868808
15	63	62	2407.449575728
15	64	63	2393.5271594895
15	65	64	2379.603182497
15	66	65	2365.6849047336
15	67	66	2351.7508362905
15	68	67	2337.8132098105
15	69	68	2323.8703218035
15	70	69	2309.9387994637
15	71	70	2295.9941752524
15	72	71	2282.0831440621
15	73	72	2268.143533262
15	74	73	2254.1993616525
15	76	74	2240.3558840704
15	77	75	2226.5537059265
15	78	76	2212.9037324735
15	79	77	2199.7338157016
15	80	78	2186.7480927453
15	81	79	2175.9928201569
15	82	80	2168.1029295478
15	83	81	2162.2266332989
15	84	82	2158.1436564524
15	85	83	2155.6325896331
15	86	84	2154.2960352827
15	203	85	2153.6782801314
15	204	86	2153.4240562572
16	11	10	1578.4572008224
16	12	11	1579.5084545957
16	13	12	1581.3347363696
16	14	13	1586.3878223058
16	15	14	1592.8997036815
16	16	15	1600.8214017563
16	17	16	1610.1145643555
16	18	17	1620.0281151207
16	19	18	1629.9508391274
16	20	19	1639.8769862521
16	21	20	1650.152956075
16	22	21	1662.350008999
16	23	22	1674.3978229715
16	24	23	1683.3884249721
16	25	24	1692.7321904004
16	26	25	1695.7712092921
16	27	26	1697.5312741632
16	28	27	1698.7895143526
16	29	28	1700.0018843804
16	30	29	1700.8322675824
16	31	30	1701.823400164
16	32	31	1710.8322953358
16	33	32	1722.2732063755
16	34	33	1735.5598643031
16	35	34	1749.3284911821
16	36	35	1763.2049558368
16	37	36	1777.0958674653
16	38	37	1790.9941266198
16	39	38	1804.9048396302
16	40	39	1818.8026582748
16	41	40	1832.6997957136
16	42	41	1846.6023934884
16	43	42	1860.5118827661
16	44	43	1874.3969481979
16	45	44	1888.3092531608
16	46	45	1902.2045003027
16	47	46	1916.0959011763
16	48	47	1929.9907226255
16	49	48	1943.869565188
16	50	49	1957.7648309385
16	51	50	1971.6316386163
16	52	51	1985.5204915106
16	53	52	1999.3913307209
16	54	53	2013.2797374083
16	55	54	2027.1641969271
16	56	55	2041.0661671618
16	57	56	2054.9513108497
16	58	57	2068.8394864146
16	59	58	2082.7452005278
16	60	59	2096.5786966914
16	61	60	2108.9975251146
16	62	61	2117.2181475768
16	63	62	2120.907838094
16	64	63	2120.4375965577
16	65	64	2119.9673023056
16	66	65	2119.4972005496
16	67	66	2119.0265654493
16	68	67	2118.555810174
16	69	68	2118.0848771865
16	70	69	2117.6143280836
16	71	70	2117.1433364535
16	72	71	2116.6734794565
16	73	72	2116.2026571594
16	74	73	2115.731680817
16	76	74	2114.50959838
16	77	75	2112.5523428405
16	78	76	2109.9997156169
16	79	77	2105.5330930501
16	80	78	2101.12894045
16	81	79	2096.9230075506
16	82	80	2092.2783535263
16	83	81	2088.819070708
16	84	82	2086.4154867064
16	85	83	2084.9372613188
16	86	84	2084.1504528755
16	203	85	2083.7867901726
16	204	86	2083.6371325916
17	12	11	3.8961603405194
17	13	12	5.9431185399189
17	14	13	8.090958917896
17	15	14	10.010561932498
17	16	15	12.031650273095
17	17	16	13.979629604903
17	18	17	13.935241770302
17	19	18	13.930649462088
17	20	19	13.994200401348
17	21	20	13.940441952762
17	22	21	13.967247671166
17	23	22	13.884102051274
17	24	23	13.928229824884
17	25	24	13.972732506306
17	26	25	13.969054342322
17	27	26	13.873090664055
17	28	27	13.111384659518
17	29	28	11.294844376699
17	30	29	6.7982995768183
17	31	30	8.5566908862733
17	32	31	10.536483478424
17	33	32	12.410386954238
17	34	33	13.895315698816
17	35	34	13.930345750295
17	36	35	13.892340940828
17	37	36	13.984538804872
17	38	37	13.966123526879
17	39	38	13.948759087052
17	40	39	13.939007919561
17	41	40	13.87496063628
17	42	41	13.949750000604
17	43	42	13.938264966083
17	44	43	13.989042540006
17	45	44	13.984807270386
17	46	45	13.987270119677
17	47	46	13.897115278668
17	48	47	13.889157581951
17	49	48	13.918112757092
17	50	49	13.933859566301
17	51	50	13.939417173029
17	52	51	13.910644266692
17	53	52	13.953055252738
17	54	53	13.879807338996
17	55	54	13.905633828803
17	56	55	13.990674512745
17	57	56	13.943762436653
17	58	57	13.974276619412
17	59	58	13.994489575005
17	60	59	13.886395471289
17	61	60	13.983820120385
17	62	61	13.902840368864
17	63	62	13.945794751027
17	64	63	13.928694565166
17	65	64	13.898329754393
17	66	65	13.884795026833
17	67	66	13.956046633569
17	68	67	13.922578119142
17	69	68	13.974631973985
17	70	69	13.993276703816
17	71	70	13.942956796789
17	72	71	13.90340702411
17	73	72	13.921497817454
17	74	73	13.981948012542
17	76	74	13.941707357548
17	77	75	13.952057872643
17	78	76	13.991111218457
17	79	77	13.963979252474
17	80	78	12.961950315621
17	81	79	10.434741739662
17	82	80	8.1171424364846
17	83	81	5.7851195343926
17	84	82	3.8855918626885
17	85	83	2.2614508028212
17	86	84	1.0989974921907
17	203	85	0.48774678961544
17	204	86	0.18481483252155
18	13	12	2.0469581993995
18	14	13	2.1478403779771
18	15	14	1.9196030146023
18	16	15	2.0210883405968
18	17	16	1.9479793318082
18	18	17	-0.044387834601315
18	19	18	-0.0045923082134696
18	20	19	0.063550939259585
18	21	20	-0.053758448585867
18	22	21	0.026805718403775
18	23	22	-0.083145619891583
18	24	23	0.044127773609944
18	25	24	0.04450268142158
18	26	25	-0.0036781639838583
18	27	26	-0.095963678266854
18	28	27	-0.76170600453746
18	29	28	-1.8165402828186
18	30	29	-4.4965447998808
18	31	30	1.758391309455
18	32	31	1.9797925921506
18	33	32	1.8739034758136
18	34	33	1.4849287445785
18	35	34	0.035030051479115
18	36	35	-0.038004809466656
18	37	36	0.092197864043992
18	38	37	-0.018415277993773
18	39	38	-0.017364439826924
18	40	39	-0.009751167490613
18	41	40	-0.064047283281106
18	42	41	0.074789364323951
18	43	42	-0.011485034520739
18	44	43	0.050777573923115
18	45	44	-0.0042352696205494
18	46	45	0.0024628492910423
18	47	46	-0.090154841009062
18	48	47	-0.0079576967167672
18	49	48	0.028955175140872
18	50	49	0.015746809209231
18	51	50	0.005557606727816
18	52	51	-0.028772906337398
18	53	52	0.042410986046306
18	54	53	-0.073247913741508
18	55	54	0.025826489806642
18	56	55	0.085040683941916
18	57	56	-0.046912076091393
18	58	57	0.030514182758051
18	59	58	0.020212955593598
18	60	59	-0.10809410371585
18	61	60	0.097424649095627
18	62	61	-0.08097975152079
18	63	62	0.042954382163007
18	64	63	-0.017100185861345
18	65	64	-0.030364810773172
18	66	65	-0.01353472755989
18	67	66	0.071251606736331
18	68	67	-0.033468514427076
18	69	68	0.05205385484267
18	70	69	0.01864472983172
18	71	70	-0.050319907027296
18	72	71	-0.039549772678875
18	73	72	0.018090793343728
18	74	73	0.06045019508805
18	76	74	-0.040240654994268
18	77	75	0.010350515095052
18	78	76	0.039053345813882
18	79	77	-0.027131965982262
18	80	78	-1.0020289368537
18	81	79	-2.5272085759582
18	82	80	-2.3175993031778
18	83	81	-2.332022902092
18	84	82	-1.8995276717041
18	85	83	-1.6241410598673
18	86	84	-1.1624533106304
18	203	85	-0.61125070257531
18	204	86	-0.30293195709389
19	13	12	4.3479287070716
19	14	13	5.7373568433415
19	15	14	6.3167108788396
19	16	15	7.7117077055244
19	17	16	8.5996792113632
19	18	17	1.8831505625734
19	19	18	2.0163360752151
19	20	19	2.2525850211395
19	21	20	1.8521438049225
19	22	21	2.1257236745966
19	23	22	1.7488023193249
19	24	23	2.1796307833066
19	25	24	2.1859136079585
19	26	25	2.0232949166861
19	27	26	1.705047893867
19	28	27	0.973
19	29	28	0.973
19	30	29	0.973
19	31	30	5.2067382891687
19	32	31	6.7536111864071
19	33	32	7.4899158488196
19	34	33	7.0008402063533
19	35	34	2.1493261403893
19	36	35	1.9006089588637
19	37	36	2.3479949429296
19	38	37	1.9733949645882
19	39	38	1.9752294304535
19	40	39	1.999849679909
19	41	40	1.8119187413878
19	42	41	2.2851374506562
19	43	42	1.9939513118291
19	44	43	2.2089137723462
19	45	44	2.0230161016369
19	46	45	2.0458448119847
19	47	46	1.726389859733
19	48	47	2.0008906317734
19	49	48	2.1275986925784
19	50	49	2.0849600431892
19	51	50	2.0513187871091
19	52	51	1.9332541754852
19	53	52	2.1766564340989
19	54	53	1.7815599934587
19	55	54	2.11575526428
19	56	55	2.3246277170302
19	57	56	1.8754467116734
19	58	57	2.1389777388815
19	59	58	2.1064542911612
19	60	59	1.6654964125318
19	61	60	2.3655201464552
19	62	61	1.7575901123722
19	63	62	2.17766676007
19	64	63	1.9741521749285
19	65	64	1.926753622285
19	66	65	1.9817933315156
19	67	66	2.2739955006374
19	68	67	1.9186322772616
19	69	68	2.2115598931279
19	70	69	2.101035397139
19	71	70	1.8639223752984
19	72	71	1.8964570484068
19	73	72	2.0915165007223
19	74	73	2.2406934886057
19	76	74	1.8976757420845
19	77	75	2.0687427156896
19	78	76	2.1696186594463
19	79	77	1.9438507119712
19	80	78	0.973
19	81	79	0.973
19	82	80	0.973
19	83	81	0.973
19	84	82	0.973
19	85	83	0.973
19	86	84	0.973
19	203	85	0.973
19	204	86	0.973
20	14	13	2414.8645712901
20	15	14	2411.9325075749
20	16	15	2407.307549299
20	17	16	2402.3819711141
20	18	17	2396.0225922338
20	19	18	2388.3097355709
20	20	19	2379.7525839951
20	21	20	2371.1797979346
20	22	21	2362.6109928851
20	23	22	2354.0336905553
20	24	23	2345.4656930681
20	25	24	2337.6443014657
20	26	25	2333.9800885962
20	27	26	2339.2095248807
20	28	27	2348.5405388502
20	29	28	2357.5929857932
20	30	29	2368.5060917536
20	31	30	2380.5964146169
20	32	31	2392.7305250216
20	33	32	2404.8825769711
20	34	33	2416.2713854978
20	35	34	2423.8318381493
20	36	35	2430.5414217106
20	37	36	2432.0595967501
20	38	37	2433.7695204905
20	39	38	2435.7402155679
20	40	39	2437.8044149801
20	41	40	2438.8704366903
20	42	41	2439.8048724786
20	43	42	2440.8145652327
20	44	43	2441.8249115449
20	45	44	2442.8359276318
20	46	45	2443.8464057466
20	47	46	2444.8560684894
20	48	47	2445.8651253292
20	49	48	2446.8751631315
20	50	49	2447.8864568248
20	51	50	2448.8980563584
20	52	51	2449.9107815142
20	53	52	2450.3721968717
20	54	53	2449.2579424309
20	55	54	2448.14637269
20	56	55	2447.0333790253
20	57	56	2445.9202576745
20	58	57	2444.8076850057
20	59	58	2443.6947190025
20	60	59	2442.5812704387
20	61	60	2441.4690444487
20	62	61	2440.3787973732
20	63	62	2439.4379660904
20	64	63	2438.5956867669
20	65	64	2437.1488363408
20	66	65	2430.3648457538
20	67	66	2418.7867024346
20	68	67	2405.3266614138
20	69	68	2391.4140627461
20	70	69	2377.5034406488
20	71	70	2363.5872149279
20	72	71	2349.658824919
20	73	72	2335.741617103
20	74	73	2321.837320851
20	76	74	2307.9137776975
20	77	75	2293.9939485847
20	78	76	2280.0668657453
20	79	77	2266.1131444776
20	80	78	2252.2081204981
20	81	79	2238.3753339627
20	82	80	2224.590280509
20	83	81	2211.0234098891
20	84	82	2197.8144765259
20	85	83	2184.9712089594
20	86	84	2174.8896678924
20	203	85	2167.8458278459
20	204	86	2163.0615963053
21	14	13	1578.4551434414
21	15	14	1579.5317819351
21	16	15	1581.4059550269
21	17	16	1586.394887154
21	18	17	1592.8360618576
21	19	18	1600.648123092
21	20	19	1609.3153387588
21	21	20	1617.998390005
21	22	21	1626.6774090352
21	23	22	1635.3650346398
21	24	23	1644.0432357211
21	25	24	1653.4101354778
21	26	25	1664.7120782211
21	27	26	1674.8061798867
21	28	27	1682.6545451051
21	29	28	1690.8182684975
21	30	29	1695.0954821324
21	31	30	1696.7961513679
21	32	31	1698.0881921807
21	33	32	1699.2372498428
21	34	33	1700.3141377419
21	35	34	1700.9673892921
21	36	35	1703.776913383
21	37	36	1713.3758633602
21	38	37	1724.6280310247
21	39	38	1737.5962066827
21	40	39	1751.3670304082
21	41	40	1765.2450615708
21	42	41	1779.1605907651
21	43	42	1793.0458572013
21	44	43	1806.9401113512
21	45	44	1820.8435762245
21	46	45	1834.73964292
21	47	46	1848.6244966416
21	48	47	1862.5010180017
21	49	48	1876.391029533
21	50	49	1890.298312041
21	51	50	1904.2098004567
21	52	51	1918.1367683951
21	53	52	1932.0321569601
21	54	53	1945.9395000339
21	55	54	1959.8133345665
21	56	55	1973.7049415167
21	57	56	1987.5981421545
21	58	57	2001.4844945306
21	59	58	2015.3757562302
21	60	59	2029.2730409121
21	61	60	2043.1550662853
21	62	61	2057.0407355139
21	63	62	2070.9412592473
21	64	63	2084.8464547861
21	65	64	2098.6611673944
21	66	65	2110.6352589624
21	67	66	2118.0829278519
21	68	67	2120.8361348445
21	69	68	2120.3662249045
21	70	69	2119.8963817256
21	71	70	2119.4263492785
21	72	71	2118.955905973
21	73	72	2118.485840356
21	74	73	2118.0162108373
21	76	74	2117.5459312387
21	77	75	2117.0757770846
21	78	76	2116.6053779293
21	79	77	2116.1340790382
21	80	78	2115.6644249409
21	81	79	2114.2287410665
21	82	80	2112.2739139404
21	83	81	2109.3619977459
21	84	82	2104.882142568
21	85	83	2100.5263042031
21	86	84	2096.2735992307
21	203	85	2092.1270018136
21	204	86	2089.3106002463
22	15	14	3.9731393382311
22	16	15	5.8796196739594
22	17	16	7.9604387571368
22	18	17	9.9547725049508
22	19	18	11.819077877801
22	20	19	12.173542862849
22	21	20	12.201070534743
22	22	21	12.262295611704
22	23	22	12.234091494596
22	24	23	12.149937149836
22	25	24	12.185626062223
22	26	25	12.245655306599
22	27	26	12.150842925089
22	28	27	12.18342180297
22	29	28	12.25736269221
22	30	29	12.140916931904
22	31	30	12.178368376615
22	32	31	12.161268960832
22	33	32	12.166011793181
22	34	33	9.8211912950298
22	35	34	6.7769317707462
22	36	35	8.6381716468251
22	37	36	10.505068438069
22	38	37	12.181594442825
22	39	38	13.866617352808
22	40	39	13.905708889831
22	41	40	13.870257037382
22	42	41	13.996044553258
22	43	42	13.9557869027
22	44	43	13.895763937477
22	45	44	13.979870708201
22	46	45	13.981248786978
22	47	46	13.875841661403
22	48	47	13.930827986803
22	49	48	13.89323054862
22	50	49	13.969165347458
22	51	50	13.914859050941
22	52	51	13.958185001146
22	53	52	13.997843201431
22	54	53	13.946323439809
22	55	54	13.954082210374
22	56	55	13.924042104934
22	57	56	13.925510551955
22	58	57	13.927237105332
22	59	58	13.93450572652
22	60	59	13.990927523093
22	61	60	13.902843529992
22	62	61	13.875381832193
22	63	62	13.9493539793
22	64	63	13.97851549631
22	65	64	13.987419845767
22	66	65	13.950246633322
22	67	66	13.871158400744
22	68	67	13.978792820778
22	69	68	13.883855219076
22	70	69	13.982209371617
22	71	70	13.98026102399
22	72	71	13.9365859131
22	73	72	13.932060745752
22	74	73	13.90439619571
22	76	74	13.884775436304
22	77	75	13.931161227254
22	78	76	13.943595780893
22	79	77	13.959188628159
22	80	78	13.985528871405
22	81	79	13.960055792695
22	82	80	13.883287949208
22	83	81	13.98765107255
22	84	82	13.997183311654
22	85	83	12.597749202972
22	86	84	9.7179220018756
22	203	85	6.9118089461129
22	204	86	4.4409639879509
23	16	15	1.9064803357283
23	17	16	2.0808190831775
23	18	17	1.9943337478139
23	19	18	1.8643053728505
23	20	19	0.35446498504789
23	21	20	0.027527671894058
23	22	21	0.061225076960399
23	23	22	-0.02820411710767
23	24	23	-0.084154344759881
23	25	24	0.03568891238654
23	26	25	0.060029244376347
23	27	26	-0.094812381509692
23	28	27	0.03257887788117
23	29	28	0.073940889239312
23	30	29	-0.11644576030551
23	31	30	0.037451444710605
23	32	31	-0.017099415783305
23	33	32	0.0047428323491481
23	34	33	-2.344820498151
23	35	34	-3.0442595242835
23	36	35	1.8612398760789
23	37	36	1.8668967912439
23	38	37	1.6765260047559
23	39	38	1.6850229099835
23	40	39	0.03909153702241
23	41	40	-0.03545185244875
23	42	41	0.12578751587542
23	43	42	-0.040257650557905
23	44	43	-0.060022965222597
23	45	44	0.084106770723592
23	46	45	0.0013780787773428
23	47	46	-0.105407125575
23	48	47	0.05498632539995
23	49	48	-0.037597438183147
23	50	49	0.075934798838571
23	51	50	-0.054306296517607
23	52	51	0.043325950205327
23	53	52	0.039658200284466
23	54	53	-0.051519761621021
23	55	54	0.0077587705641058
23	56	55	-0.030040105439257
23	57	56	0.0014684470207431
23	58	57	0.0017265533772299
23	59	58	0.007268621188123
23	60	59	0.056421796572394
23	61	60	-0.088083993101026
23	62	61	-0.027461697799154
23	63	62	0.073972147107124
23	64	63	0.029161517010071
23	65	64	0.0089043494570067
23	66	65	-0.037173212445341
23	67	66	-0.079088232577778
23	68	67	0.10763442003401
23	69	68	-0.094937601701822
23	70	69	0.098354152541141
23	71	70	-0.0019483476271844
23	72	71	-0.043675110889598
23	73	72	-0.00452516734833
23	74	73	-0.027664550042246
23	76	74	-0.01962075940566
23	77	75	0.046385790950152
23	78	76	0.012434553639032
23	79	77	0.015592847266234
23	80	78	0.02634024324594
23	81	79	-0.025473078710492
23	82	80	-0.07676784348674
23	83	81	0.10436312334146
23	84	82	0.0095322391041552
23	85	83	-1.3994341086815
23	86	84	-2.8798272010967
23	203	85	-2.8061130557626
23	204	86	-2.470844958162
24	16	15	4.1138700107385
24	17	16	5.5325914519562
24	18	17	6.4659557871765
24	19	18	7.1429544143956
24	20	19	2.9038465662648
24	21	20	1.9473137724788
24	22	21	2.0527950791634
24	23	22	1.7861712805225
24	24	23	1.6153871216238
24	25	24	1.9697973027684
24	26	25	2.0475251911549
24	27	26	1.5842390096777
24	28	27	1.9604496196199
24	29	28	2.0898416698448
24	30	29	1.5202827513727
24	31	30	1.9742592879958
24	32	31	1.8126969751437
24	33	32	1.8771423618155
24	34	33	0.973
24	35	34	0.973
24	36	35	5.4609774199088
24	37	36	6.4503222725068
24	38	37	6.7865131810031
24	39	38	7.6563387625589
24	40	39	2.1602182071667
24	41	40	1.9071004365848
24	42	41	2.4627292116408
24	43	42	1.8989204284332
24	44	43	1.827189720115
24	45	44	2.3201530115004
24	46	45	2.0415693189597
24	47	46	1.6736841191403
24	48	47	2.2163791980693
24	49	48	1.9020552990696
24	50	49	2.2913286968534
24	51	50	1.8480286278844
24	52	51	2.1803110710668
24	53	52	2.1724126200196
24	54	53	1.8601925950842
24	55	54	2.0602387776777
24	56	55	1.930274436623
24	57	56	2.036157768654
24	58	57	2.0372007937834
24	59	58	2.0565568498743
24	60	59	2.2281612810724
24	61	60	1.7337870051652
24	62	61	1.9342960225457
24	63	62	2.2823425357736
24	64	63	2.1348859790894
24	65	64	2.0675743339921
24	66	65	1.908777903905
24	67	66	1.7613100770746
24	68	67	2.3992828295371
24	69	68	1.7093260933299
24	70	69	2.3684495022183
24	71	70	2.0302602959797
24	72	71	1.8856672077803
24	73	72	2.0167039368635
24	74	73	1.9363752327597
24	76	74	1.9614261359795
24	77	75	2.1875420936808
24	78	76	2.0748603817655
24	79	77	2.0871254407286
24	80	78	2.1261444356391
24	81	79	1.9490562525584
24	82	80	1.7700750967629
24	83	81	2.3893923312141
24	84	82	2.0707141054205
24	85	83	0.973
24	86	84	0.973
24	203	85	0.973
24	204	86	0.973
25	17	16	2414.8742919662
25	18	17	2411.9647574567
25	19	18	2407.4709281542
25	20	19	2402.7010792277
25	21	20	2396.4343387976
25	22	21	2388.8292996709
25	23	22	2379.909465751
25	24	23	2370.122173433
25	25	24	2360.3240241853
25	26	25	2350.5291667957
25	27	26	2341.0202110449
25	28	27	2334.567914044
25	29	28	2337.6499394794
25	30	29	2348.3427617692
25	31	30	2358.6304006808
25	32	31	2371.1504080649
25	33	32	2384.271302881
25	34	33	2396.8069145705
25	35	34	2406.5866813937
25	36	35	2415.6984001006
25	37	36	2423.3590021208
25	38	37	2430.2986663393
25	39	38	2431.9405360408
25	40	39	2433.6660705851
25	41	40	2435.6680228206
25	42	41	2437.750612739
25	43	42	2438.8438458804
25	44	43	2439.7700752683
25	45	44	2440.7811142049
25	46	45	2441.7908340808
25	47	46	2442.801575028
25	48	47	2443.8108392151
25	49	48	2444.8226987327
25	50	49	2445.8311989126
25	51	50	2446.8412113849
25	52	51	2447.8512685195
25	53	52	2448.8626490379
25	54	53	2449.873510154
25	55	54	2450.411915419
25	56	55	2449.29779358
25	57	56	2448.1854336141
25	58	57	2447.0729189815
25	59	58	2445.9594237038
25	60	59	2444.8467275568
25	61	60	2443.7333818946
25	62	61	2442.6177308392
25	63	62	2441.5069055423
25	64	63	2440.4102585554
25	65	64	2439.4708413872
25	66	65	2438.6108860393
25	67	66	2437.2427724712
25	68	67	2430.6962778039
25	69	68	2419.256241234
25	70	69	2405.8430530793
25	71	70	2391.9155877775
25	72	71	2378.0043964407
25	73	72	2364.065555631
25	74	73	2350.1343240096
25	76	74	2336.1999652357
25	77	75	2322.2752174732
25	78	76	2308.3549043656
25	79	77	2294.4024163597
25	80	78	2280.5010128453
25	81	79	2266.5806367355
25	82	80	2252.6444555474
25	83	81	2238.7825166313
25	84	82	2224.9883870238
25	85	83	2211.3995488944
25	86	84	2198.4744139786
25	203	85	2187.4722071659
25	204	86	2178.6860383343
26	17	16	1578.4515740592
26	18	17	1579.5199399469
26	19	18	1581.240474754
26	20	19	1586.0716745965
26	21	20	1592.4190193126
26	22	21	1600.121876237
26	23	22	1609.1564391535
26	24	23	1619.0696179215
26	25	24	1628.9937932631
26	26	25	1638.9146344066
26	27	26	1649.0884457836
26	28	27	1661.0098012434
26	29	28	1673.5467208857
26	30	29	1682.4761847798
26	31	30	1691.7538352273
26	32	31	1695.4907239079
26	33	32	1697.2335450826
26	34	33	1698.4736420345
26	35	34	1699.3983842954
26	36	35	1700.2599581461
26	37	36	1700.9400090314
26	38	37	1703.0545681324
26	39	38	1712.592383353
26	40	39	1723.947278046
26	41	40	1737.1211416973
26	42	41	1750.877535508
26	43	42	1764.7655960293
26	44	43	1778.6820605043
26	45	44	1792.585839604
26	46	45	1806.4714790201
26	47	46	1820.3711601794
26	48	47	1834.2505329745
26	49	48	1848.1655966826
26	50	49	1862.0344628729
26	51	50	1875.9241260653
26	52	51	1889.814403452
26	53	52	1903.722879976
26	54	53	1917.6242136955
26	55	54	1931.5364178848
26	56	55	1945.4421059182
26	57	56	1959.3258034848
26	58	57	1973.2114314912
26	59	58	1987.1092992248
26	60	59	2000.9971927684
26	61	60	2014.8931931043
26	62	61	2028.8179677455
26	63	62	2042.682510647
26	64	63	2056.5759051898
26	65	64	2070.4555357695
26	66	65	2084.3585581398
26	67	66	2098.1633059029
26	68	67	2110.2276250841
26	69	68	2117.8730389047
26	70	69	2120.8535764152
26	71	70	2120.3831643425
26	72	71	2119.9133019364
26	73	72	2119.4425056465
26	74	73	2118.9719663626
26	76	74	2118.5013214564
26	77	75	2118.0310011711
26	78	76	2117.5608306695
26	79	77	2117.0895734336
26	80	78	2116.62004162
26	81	79	2116.1498689903
26	82	80	2115.6791625312
26	83	81	2114.286482716
26	84	82	2112.3303685207
26	85	83	2109.4895665832
26	86	84	2105.1059626248
26	203	85	2101.3745263461
26	204	86	2098.3946669698
27	18	17	3.870030007349
27	19	18	5.6584580408904
27	20	19	7.7430691783322
27	21	20	9.8384561070573
27	22	21	11.769458662172
27	23	22	13.525058513738
27	24	23	13.971981254104
27	25	24	13.998893493533
27	26	25	13.924586101961
27	27	26	13.906217133983
27	28	27	13.912720147136
27	29	28	13.898407651924
27	30	29	13.991539277635
27	31	30	13.749397735395
27	32	31	13.324878579226
27	33	32	13.171200650188
27	34	33	11.466720397846
27	35	34	8.7413360722148
27	36	35	9.7403346503715
27	37	36	6.3449895574643
27	38	37	8.6182711164817
27	39	38	10.554354915016
27	40	39	12.321445119975
27	41	40	13.966841708464
27	42	41	13.901266286944
27	43	42	13.970242012145
27	44	43	13.87635670668
27	45	44	13.946377406444
27	46	45	13.898623034931
27	47	46	13.910780882265
27	48	47	13.968134914574
27	49	48	13.899232032241
27	50	49	13.932512850815
27	51	50	13.884250787057
27	52	51	13.895862366962
27	53	52	13.986895412421
27	54	53	13.893358231112
27	55	54	13.959316051044
27	56	55	13.989134789919
27	57	56	13.914225475967
27	58	57	13.984155706272
27	59	58	13.960849824091
27	60	59	13.947145284638
27	61	60	13.986034812739
27	62	61	13.988668030279
27	63	62	13.888524159316
27	64	63	13.94008519324
27	65	64	13.985140344484
27	66	65	13.890186045601
27	67	66	13.920656501474
27	68	67	13.878349853344
27	69	68	13.973063721254
27	70	69	13.907489486693
27	71	70	13.981651481919
27	72	71	13.882119308352
27	73	72	13.943396546461
27	74	73	13.935213858197
27	76	74	13.888696706982
27	77	75	13.911673686597
27	78	76	13.979746428677
27	79	77	13.99277193906
27	80	78	13.904987801067
27	81	79	13.964300587832
27	82	80	13.926248426738
27	83	81	13.900050068146
27	84	82	13.901811380428
27	85	83	13.882324705466
27	86	84	12.942777423498
27	203	85	10.566438082877
27	204	86	8.3408519183628
28	19	18	1.7884280335414
28	20	19	2.0846111374418
28	21	20	2.0953869287251
28	22	21	1.9310025551147
28	23	22	1.7555998515664
28	24	23	0.44692274036526
28	25	24	0.026912239429077
28	26	25	-0.074307391571347
28	27	26	-0.01836896797875
28	28	27	0.0065030131535604
28	29	28	-0.014312495212071
28	30	29	0.093131625710521
28	31	30	-0.24214154223938
28	32	31	-0.42451915616871
28	33	32	-0.15367792903823
28	34	33	-1.7044802523423
28	35	34	-2.7253843256311
28	36	35	0.99899857815662
28	37	36	-3.3953450929072
28	38	37	2.2732815590175
28	39	38	1.9360837985342
28	40	39	1.7670902049588
28	41	40	1.6453965884888
28	42	41	-0.065575421520043
28	43	42	0.06897572520189
28	44	43	-0.093885305465665
28	45	44	0.070020699764136
28	46	45	-0.047754371513147
28	47	46	0.012157847334166
28	48	47	0.057354032308794
28	49	48	-0.068902882332914
28	50	49	0.033280818574131
28	51	50	-0.048262063758447
28	52	51	0.011611579905729
28	53	52	0.091033045458607
28	54	53	-0.093537181308493
28	55	54	0.06595781993121
28	56	55	0.02981873887591
28	57	56	-0.074909313952086
28	58	57	0.0699302303046
28	59	58	-0.023305882180576
28	60	59	-0.013704539453609
28	61	60	0.038889528100844
28	62	61	0.0026332175405699
28	63	62	-0.10014387096278
28	64	63	0.051561033923644
28	65	64	0.04505515124416
28	66	65	-0.094954298883676
28	67	66	0.030470455873292
28	68	67	-0.042306648129598
28	69	68	0.094713867909741
28	70	69	-0.065574234561064
28	71	70	0.074161995225587
28	72	71	-0.099532173566987
28	73	72	0.061277238109614
28	74	73	-0.0081826882646414
28	76	74	-0.046517151214648
28	77	75	0.022976979615631
28	78	76	0.068072742079385
28	79	77	0.013025510383304
28	80	78	-0.087784137993586
28	81	79	0.059312786764931
28	82	80	-0.038052161093802
28	83	81	-0.026198358591646
28	84	82	0.0017613122821789
28	85	83	-0.019486674962099
28	86	84	-0.93954728196841
28	203	85	-2.3763393406203
28	204	86	-2.2255861645146
29	19	18	3.8385591483154
29	20	19	5.4164617859572
29	21	20	6.6408856932189
29	22	21	7.3055366394739
29	23	22	7.7134498828864
29	24	23	3.5408765944278
29	25	24	2.1295288887144
29	26	25	1.7817726947314
29	27	26	1.9677017101798
29	28	27	2.051730205351
29	29	28	1.9805284718304
29	30	29	2.3520164096148
29	31	30	1.2110270045183
29	32	31	0.973
29	33	32	1.4686459436882
29	34	33	0.973
29	35	34	0.973
29	36	35	4.0103114827272
29	37	36	0.973
29	38	37	6.3064922280487
29	39	38	6.6523734200843
29	40	39	7.1245103422707
29	41	40	7.5738707167102
29	42	41	1.8090682547031
29	43	42	2.268028562465
29	44	43	1.7122546582674
29	45	44	2.2687042812047
29	46	45	1.8685338055442
29	47	46	2.0704874226364
29	48	47	2.2286555945449
29	49	48	1.7977472965966
29	50	49	2.1436920788903
29	51	50	1.8655384820264
29	52	51	2.0670954427439
29	53	52	2.3443623165798
29	54	53	1.7147641271474
29	55	54	2.2565765453631
29	56	55	2.1382641260636
29	57	56	1.778883677939
29	58	57	2.2729012191411
29	59	58	1.9564242427306
29	60	59	1.9873732090056
29	61	60	2.1684985313885
29	62	61	2.0465632364654
29	63	62	1.6922679198375
29	64	63	2.2059391798661
29	65	64	2.189179244803
29	66	65	1.7097691038793
29	67	66	2.132959322288
29	68	67	1.8849263097122
29	69	68	2.3550376498046
29	70	69	1.8096075254791
29	71	70	2.2868617788146
29	72	71	1.6938177904823
29	73	72	2.2389683718837
29	74	73	2.004738888657
29	76	74	1.871779367463
29	77	75	2.1068544397734
29	78	76	2.2661172171127
29	79	77	2.0820319303487
29	80	78	1.7349646516789
29	81	79	2.2348023405784
29	82	80	1.9035931946635
29	83	81	1.9408733739845
29	84	82	2.0347158492585
29	85	83	1.9616371842025
29	86	84	0.973
29	203	85	0.973
29	204	86	0.973
30	20	19	2414.8607989713
30	21	20	2411.9237998576
30	22	21	2407.2693992316
30	23	22	2402.2582021394
30	24	23	2395.8145541869
30	25	24	2388.0081592171
30	26	25	2379.0175213316
30	27	26	2369.8578768378
30	28	27	2360.6686011889
30	29	28	2351.4801771898
30	30	29	2342.4005361317
30	31	30	2335.0765240603
30	32	31	2334.8907871781
30	33	32	2344.7050155463
30	34	33	2354.4349157303
30	35	34	2365.14500614
30	36	35	2378.068884353
30	37	36	2391.0505757687
30	38	37	2403.8576835205
30	39	38	2415.7291053454
30	40	39	2423.5231002476
30	41	40	2430.5913646009
30	42	41	2432.2128211756
30	43	42	2434.1148734335
30	44	43	2436.2079989328
30	45	44	2438.1426224712
30	46	45	2439.0536478751
30	47	46	2440.0306405651
30	48	47	2441.0399549491
30	49	48	2442.0510312043
30	50	49	2443.0615024114
30	51	50	2444.0727362926
30	52	51	2445.0825321584
30	53	52	2446.0936564656
30	54	53	2447.1035658616
30	55	54	2448.1144837788
30	56	55	2449.1246088544
30	57	56	2450.1335480693
30	58	57	2450.1257284011
30	59	58	2449.013200607
30	60	59	2447.9000989107
30	61	60	2446.7885179245
30	62	61	2445.6746114693
30	63	62	2444.5615130276
30	64	63	2443.4478794707
30	65	64	2442.3346269802
30	66	65	2441.2217377226
30	67	66	2440.1694872119
30	68	67	2439.2289309861
30	69	68	2438.6086227136
30	70	69	2436.3455205068
30	71	70	2428.2469946125
30	72	71	2415.9645881001
30	73	72	2402.2460262277
30	74	73	2388.2968923537
30	76	74	2374.3765657443
30	77	75	2360.4536663293
30	78	76	2346.5428445088
30	79	77	2332.6063674816
30	80	78	2318.6685079269
30	81	79	2304.7359708812
30	82	80	2290.8122181257
30	83	81	2276.8940619052
30	84	82	2262.9707607039
30	85	83	2249.0527469218
30	86	84	2235.2371989664
30	203	85	2221.4524506783
30	204	86	2208.0520442203
31	20	19	1578.4565286171
31	21	20	1579.534979363
31	22	21	1581.4445957895
31	23	22	1586.5202480741
31	24	23	1593.0467757387
31	25	24	1600.953578392
31	26	25	1610.0598559706
31	27	26	1619.3373139612
31	28	27	1628.6447842298
31	29	28	1637.9513918934
31	30	29	1647.3214148358
31	31	30	1657.9467543541
31	32	31	1670.7119554784
31	33	32	1679.2441190835
31	34	33	1687.9702418139
31	35	34	1694.5931059839
31	36	35	1696.4953188607
31	37	36	1697.9293417605
31	38	37	1699.1403393224
31	39	38	1700.2628615322
31	40	39	1700.9495113734
31	41	40	1703.9255239349
31	42	41	1714.384157991
31	43	42	1726.9006289933
31	44	43	1740.6744590802
31	45	44	1754.444055425
31	46	45	1768.3680537129
31	47	46	1782.2653471585
31	48	47	1796.1454102583
31	49	48	1810.0497025652
31	50	49	1823.9456742657
31	51	50	1837.8521342399
31	52	51	1851.738818665
31	53	52	1865.6437717807
31	54	53	1879.5320174713
31	55	54	1893.4341323171
31	56	55	1907.325344027
31	57	56	1921.200247813
31	58	57	1935.1084036874
31	59	58	1948.994195967
31	60	59	1962.8871512944
31	61	60	1976.7611261811
31	62	61	1990.6641259445
31	63	62	2004.5570406457
31	64	63	2018.456634284
31	65	64	2032.3514717165
31	66	65	2046.2417755313
31	67	66	2060.1332356455
31	68	67	2074.0296954866
31	69	68	2087.9537288425
31	70	69	2101.6296630036
31	71	70	2112.8337251889
31	72	71	2119.3444436351
31	73	72	2120.7320837518
31	74	73	2120.2609398039
31	76	74	2119.7907688469
31	77	75	2119.32051099
31	78	76	2118.8506610654
31	79	77	2118.3799446132
31	80	78	2117.9091814663
31	81	79	2117.4385980908
31	82	80	2116.9683114123
31	83	81	2116.4982137615
31	84	82	2116.0279423343
31	85	83	2115.5578494947
31	86	84	2113.7837292692
31	203	85	2111.8289454179
31	204	86	2108.3542488599
32	21	20	3.9344378368136
32	22	21	5.9527796372048
32	23	22	8.0222770419273
32	24	23	10.033013923007
32	25	24	12.047020169017
32	26	25	13.016463543648
32	27	26	13.009790571195
32	28	27	13.115583375625
32	29	28	13.105735652056
32	30	29	13.008829669257
32	31	30	13.104066683276
32	32	31	13.090532616678
32	33	32	13.099958934002
32	34	33	13.113956739798
32	35	34	13.090508163779
32	36	35	13.097066232034
32	37	36	13.054257276666
32	38	37	13.060327544139
32	39	38	10.087616325787
32	40	39	7.0076163257865
32	41	40	9.492422537517
32	42	41	11.565937766696
32	43	42	13.605748992962
32	44	43	13.975909319944
32	45	44	13.884999133018
32	46	45	13.992326978301
32	47	46	13.93253966168
32	48	47	13.877438676255
32	49	48	13.950643362533
32	50	49	13.976144419545
32	51	50	13.930726964653
32	52	51	13.975468302649
32	53	52	13.970134633023
32	54	53	13.923417213422
32	55	54	13.872201307276
32	56	55	13.960453912024
32	57	56	13.902490299838
32	58	57	13.994001860507
32	59	58	13.92572052571
32	60	59	13.971425429075
32	61	60	13.891930524404
32	62	61	13.922937131964
32	63	62	13.961860484537
32	64	63	13.947150682872
32	65	64	13.88129042546
32	66	65	13.905559241408
32	67	66	13.972930852403
32	68	67	13.958542938335
32	69	68	13.967763633775
32	70	69	13.912472284555
32	71	70	13.890636970939
32	72	71	13.985845620527
32	73	72	13.918686455546
32	74	73	13.914490850545
32	76	74	13.896648303762
32	77	75	13.916794079717
32	78	76	13.909589839831
32	79	77	13.992580381436
32	80	78	13.997010356491
32	81	79	13.94992004202
32	82	80	13.99062350862
32	83	81	13.992930187918
32	84	82	13.894132383042
32	85	83	13.940343666112
32	86	84	13.969185769297
32	203	85	13.996881969178
32	204	86	13.740196233534
33	22	21	2.0183418003912
33	23	22	2.0694974047225
33	24	23	2.0107368810801
33	25	24	2.0140062460094
33	26	25	0.96944337463072
33	27	26	-0.0066729724523604
33	28	27	0.10579280443024
33	29	28	-0.0098477235692567
33	30	29	-0.096905982799361
33	31	30	0.095237014018931
33	32	31	-0.013534066597932
33	33	32	0.0094263173243974
33	34	33	0.013997805796098
33	35	34	-0.023448576019145
33	36	35	0.0065580682549609
33	37	36	-0.042808955367654
33	38	37	0.0060702674729569
33	39	38	-2.9727112183529
33	40	39	-3.08
33	41	40	2.4848062117305
33	42	41	2.0735152291786
33	43	42	2.0398112262669
33	44	43	0.37016032698128
33	45	44	-0.090910186925901
33	46	45	0.10732784528285
33	47	46	-0.05978731662035
33	48	47	-0.055100985425524
33	49	48	0.073204686278476
33	50	49	0.025501057012008
33	51	50	-0.045417454892304
33	52	51	0.044741337995511
33	53	52	-0.0053336696256885
33	54	53	-0.046717419601046
33	55	54	-0.051215906145517
33	56	55	0.088252604748122
33	57	56	-0.057963612186722
33	58	57	0.091511560669169
33	59	58	-0.06828133479692
33	60	59	0.045704903365111
33	61	60	-0.079494904670863
33	62	61	0.031006607559975
33	63	62	0.038923352572601
33	64	63	-0.014709801664576
33	65	64	-0.065860257411842
33	66	65	0.024268815948163
33	67	66	0.067371610994449
33	68	67	-0.014387914068065
33	69	68	0.0092206954397263
33	70	69	-0.055291349219624
33	71	70	-0.02183531361632
33	72	71	0.095208649588749
33	73	72	-0.067159164980986
33	74	73	-0.0041956050018772
33	76	74	-0.017842546782923
33	77	75	0.020145775955172
33	78	76	-0.0072042398853238
33	79	77	0.082990541604813
33	80	78	0.0044299750542276
33	81	79	-0.047090314470697
33	82	80	0.040703466599807
33	83	81	0.0023066792986359
33	84	82	-0.098797804876231
33	85	83	0.046211283069569
33	86	84	0.028842103185598
33	203	85	0.027696199880447
33	204	86	-0.25668573564331
34	22	21	4.3122018088485
34	23	22	5.5457905004585
34	24	23	6.5491634530395
34	25	24	7.6999912872737
34	26	25	4.9827552324779
34	27	26	1.9200854262848
34	28	27	2.2855096666674
34	29	28	1.9190658597922
34	30	29	1.6371035155304
34	31	30	2.2507758906225
34	32	31	1.9060159624287
34	33	32	1.979375927759
34	34	33	1.995197439054
34	35	34	1.8747352833651
34	36	35	1.9700389471811
34	37	36	1.8105653627678
34	38	37	1.9649316420143
34	39	38	0.973
34	40	39	0.973
34	41	40	7.3313545792848
34	42	41	7.5905658482654
34	43	42	8.6875226012827
34	44	43	3.2831510328466
34	45	44	1.7228930941981
34	46	45	2.3999866188766
34	47	46	1.8311962377719
34	48	47	1.8420528262396
34	49	48	2.2799169762351
34	50	49	2.1222972100305
34	51	50	1.8792814192531
34	52	51	2.1870267967018
34	53	52	2.01783073732
34	54	53	1.8742537874068
34	55	54	1.8545789006012
34	56	55	2.331721097692
34	57	56	1.8346768837701
34	58	57	2.3468603454262
34	59	58	1.8020921083725
34	60	59	2.1898138377983
34	61	60	1.7616639859965
34	62	61	2.1350076066896
34	63	62	2.1659113659619
34	64	63	1.9839947916117
34	65	64	1.8063991465524
34	66	65	2.1105270663027
34	67	66	2.2629466147616
34	68	67	1.9862014525399
34	69	68	2.0665845442883
34	70	69	1.8445138867151
34	71	70	1.9545809457907
34	72	71	2.3583059753219
34	73	72	1.8052548988307
34	74	73	2.0160367345104
34	76	74	1.9685330292915
34	77	75	2.0979088295692
34	78	76	2.0054568037104
34	79	77	2.317948602893
34	80	78	2.0534846112186
34	81	79	1.875406851172
34	82	80	2.1751278635133
34	83	81	2.0459015750784
34	84	82	1.6972103121921
34	85	83	2.1879956356411
34	86	84	2.1327901261756
34	203	85	2.1319540692104
34	204	86	1.1624768722745
35	23	22	2414.8922029245
35	24	23	2412.0508408661
35	25	24	2407.4982523207
35	26	25	2402.7621156517
35	27	26	2396.6514595215
35	28	27	2389.3551643988
35	29	28	2381.9396047436
35	30	29	2374.5339087542
35	31	30	2367.1149106607
35	32	31	2359.6722777232
35	33	32	2352.2594454424
35	34	33	2344.8515450059
35	35	34	2338.1224087768
35	36	35	2334.3496321671
35	37	36	2336.1125526594
35	38	37	2344.2585890242
35	39	38	2352.146144705
35	40	39	2359.9961625962
35	41	40	2370.0639957343
35	42	41	2380.496846257
35	43	42	2390.9705089793
35	44	43	2401.4729861662
35	45	44	2411.9865252452
35	46	45	2421.0897892835
35	47	46	2428.3394634365
35	48	47	2431.5166236483
35	49	48	2433.2510867879
35	50	49	2435.1550757885
35	51	50	2437.0623373888
35	52	51	2438.487162218
35	53	52	2439.2516127322
35	54	53	2440.170385797
35	55	54	2441.0898312912
35	56	55	2442.0085421617
35	57	56	2442.9286661166
35	58	57	2443.8483044071
35	59	58	2444.7674911855
35	60	59	2445.6867285094
35	61	60	2446.6051642202
35	62	61	2447.5248580826
35	63	62	2448.4441309148
35	64	63	2449.3635798451
35	65	64	2450.2829430236
35	66	65	2450.0630773732
35	67	66	2449.050938567
35	68	67	2448.0387738993
35	69	68	2447.0251305712
35	70	69	2446.0136829953
35	71	70	2445.0010167341
35	72	71	2443.9884886589
35	73	72	2442.975230003
35	74	73	2441.962461728
35	76	74	2440.9504058058
35	77	75	2440.0238538213
35	78	76	2439.1689833602
35	79	77	2438.6081402403
35	80	78	2436.4732731847
35	81	79	2428.4467673213
35	82	80	2416.1922419305
35	83	81	2402.4618878207
35	84	82	2388.520832101
35	85	83	2374.5786524898
35	86	84	2360.6680590119
35	203	85	2346.7278441451
35	204	86	2332.8108867967
36	23	22	1578.4449972492
36	24	23	1579.4883305682
36	25	24	1581.2127991384
36	26	25	1586.0098531079
36	27	26	1592.1991059305
36	28	27	1599.5892477138
36	29	28	1607.1001880364
36	30	29	1614.6011378253
36	31	30	1622.1155608129
36	32	31	1629.6539226416
36	33	32	1637.1621005097
36	34	33	1644.6652830997
36	35	34	1652.7980837068
36	36	35	1662.3243794115
36	37	36	1672.2035182491
36	38	37	1678.8836028203
36	39	38	1685.9061707761
36	40	39	1692.9855135307
36	41	40	1695.3283395758
36	42	41	1696.7843005117
36	43	42	1697.9217709107
36	44	43	1698.9148502629
36	45	44	1699.9089755919
36	46	45	1700.7697499972
36	47	46	1701.4438195238
36	48	47	1709.8028242625
36	49	48	1721.216473652
36	50	49	1733.7456894051
36	51	50	1746.2964405296
36	52	51	1758.8891359391
36	53	52	1771.5521782478
36	54	53	1784.1871196683
36	55	54	1796.8313083183
36	56	55	1809.465394442
36	57	56	1822.118913264
36	58	57	1834.765753244
36	59	58	1847.4063840415
36	60	59	1860.0477099391
36	61	60	1872.6780120768
36	62	61	1885.3256162805
36	63	62	1897.9674304854
36	64	63	1910.6116663888
36	65	64	1923.2547230348
36	66	65	1935.8903699135
36	67	66	1948.5231771981
36	68	67	1961.156307267
36	69	68	1973.80789294
36	70	69	1986.4320727717
36	71	70	1999.0714633809
36	72	71	2011.7091292478
36	73	72	2024.3559137126
36	74	73	2036.9965775851
36	76	74	2049.6283503696
36	77	75	2062.2849289803
[...]
93	62	61	1.5246145719435
93	63	62	-0.64439377301499
93	64	63	-0.60014214368099
93	65	64	-0.48121134383553
93	66	65	-0.35173666194397
93	67	66	-0.26554888743773
93	68	67	-0.19493023033467
93	69	68	-0.16800720096642
93	70	69	-0.12668626724222
93	71	70	-0.10413765249485
93	72	71	0.0014097126606352
93	73	72	0.02652932023398
93	74	73	-0.10843477881666
93	76	74	-0.031083592366771
93	77	75	0.0074256294537847
93	78	76	-1.6141202012739
93	79	77	-0.073839385731425
93	80	78	-1.9671608900386
93	81	79	2.189271256444
93	82	80	1.7462935384433
93	83	81	2.011655899242
93	84	82	0.71521276409226
93	85	83	-0.34777270036468
93	86	84	-0.048201155874381
93	203	85	-0.15919867059325
93	204	86	-0.048793792797726
94	58	57	4.1950441230803
94	59	58	4.9147570934134
94	60	59	6.0736865479645
94	61	60	7.0047566608384
94	62	61	6.7525603212583
94	63	62	0.973
94	64	63	0.973
94	65	64	0.973
94	66	65	0.973
94	67	66	0.973
94	68	67	1.2314516482301
94	69	68	1.2934447442826
94	70	69	1.3907538591667
94	71	70	1.4410181123805
94	72	71	1.6990750713798
94	73	72	1.7626813155795
94	74	73	1.4264608934161
94	76	74	1.6118639086451
94	77	75	1.7055201025915
94	78	76	0.973
94	79	77	1.4179247162206
94	80	78	0.973
94	81	79	6.1036369445747
94	82	80	6.0511153008817
94	83	81	7.8548861317125
94	84	82	4.1925765499081
94	85	83	0.973
94	86	84	1.7601180296388
94	203	85	1.4132407135352
94	204	86	1.7416536884764
95	59	58	2414.8306137895
95	60	59	2411.8646546976
95	61	60	2407.2668535521
95	62	61	2402.4276387371
95	63	62	2396.2637564216
95	64	63	2388.71689672
95	65	64	2379.9432110979
95	66	65	2370.8205428058
95	67	66	2361.7031963477
95	68	67	2352.5785736437
95	69	68	2343.4556611091
95	70	69	2335.4111695697
95	71	70	2334.1050956181
95	72	71	2342.3270440005
95	73	72	2351.0515144989
95	74	73	2359.3585484837
95	76	74	2369.5694109245
95	77	75	2380.1293918526
95	78	76	2390.3079491478
95	79	77	2399.1283320225
95	80	78	2407.8850077005
95	81	79	2415.9355433136
95	82	80	2423.5917770769
95	83	81	2430.5672979063
95	84	82	2432.1387561323
95	85	83	2433.9606323227
95	86	84	2436.0092325315
95	203	85	2437.9473748731
95	204	86	2438.8999426562
96	59	58	1578.4676124584
96	60	59	1579.5566971572
96	61	60	1581.447174212
96	62	61	1586.3486321429
96	63	62	1592.5917957593
96	64	63	1600.2357249409
96	65	64	1609.1222597659
96	66	65	1618.3622659575
96	67	66	1627.5968818646
96	68	67	1636.8388676066
96	69	68	1646.0791211827
96	70	69	1656.2688918738
96	71	70	1668.7883207779
96	72	71	1677.323764056
96	73	72	1684.9190058382
96	74	73	1692.4104971541
96	76	74	1695.254414767
96	77	75	1696.7405652367
96	78	76	1697.8591214539
96	79	77	1698.6931475569
96	80	78	1699.5211497182
96	81	79	1700.2823816212
96	82	80	1700.9534882056
96	83	81	1703.8539108438
96	84	82	1713.8967723455
96	85	83	1725.8856440568
96	86	84	1739.3664750913
96	203	85	1752.6676851204
96	204	86	1765.7770910189
97	60	59	4.0131447904773
97	61	60	5.9410567647132
97	62	61	7.7868571818906
97	63	62	9.575458546675
97	64	63	11.589838730226
97	65	64	12.994677373088
97	66	65	12.955435991663
97	67	66	12.929671861288
97	68	67	13.015937561871
97	69	68	13.01910593625
97	70	69	12.966844460776
97	71	70	12.398564253568
97	72	71	11.838212686587
97	73	72	11.378479442399
97	74	73	11.008082772567
97	76	74	10.809208597944
97	77	75	10.520392896659
97	78	76	9.4682752524041
97	79	77	8.9717173874714
97	80	78	7.8971182272532
97	81	79	8.6399922425519
97	82	80	6.9500075782111
97	83	81	9.0580127246419
97	84	82	11.071043115572
97	85	83	12.993717317145
97	86	84	13.632272385372
97	203	85	13.361511527463
97	204	86	13.043152413845
98	61	60	1.9279119742359
98	62	61	1.8458004171774
98	63	62	1.7886013647844
98	64	63	2.0143801835505
98	65	64	1.4048386428622
98	66	65	-0.039241381424945
98	67	66	-0.025764130374883
98	68	67	0.086265700582882
98	69	68	0.0031683743791646
98	70	69	-0.052261475473642
98	71	70	-0.5682802072084
98	72	71	-0.56035156698049
98	73	72	-0.45973324418808
98	74	73	-0.37039666983248
98	76	74	-0.19887417462233
98	77	75	-0.28881570128546
98	78	76	-1.0521176442549
98	79	77	-0.49655786493273
98	80	78	-1.0745991602182
98	81	79	0.74287401529867
98	82	80	-1.6899846643408
98	83	81	2.1080051464308
98	84	82	2.0130303909304
98	85	83	1.9226742015732
98	86	84	0.63855506822657
98	203	85	-0.27076085790905
98	204	86	-0.31835911361821
99	61	60	4.1763422115383
99	62	61	4.9931445455275
99	63	62	5.7805552831944
99	64	63	7.4393773413609
99	65	64	6.33912785383
99	66	65	1.8133247758859
99	67	66	1.8531253200092
99	68	67	2.2121943783384
99	69	68	1.9518353387127
99	70	69	1.7736104492598
99	71	70	0.973
99	72	71	0.973
99	73	72	0.973
99	74	73	0.973
99	76	74	1.2300338726453
99	77	75	0.973
99	78	76	0.973
99	79	77	0.973
99	80	78	0.973
99	81	79	3.1332155073182
99	82	80	0.973
99	83	81	6.2173487462775
99	84	82	7.1404306016426
99	85	83	7.960306310051
99	86	84	4.0995485590459
99	203	85	1.1030391040346
99	204	86	0.973
100	62	61	2414.8865943244
100	63	62	2411.9360436442
100	64	63	2407.1380206958
100	65	64	2402.0418497395
100	66	65	2395.6136266402
100	67	66	2387.8127820055
100	68	67	2378.7024025425
100	69	68	2368.9079429059
100	70	69	2359.1208725628
100	71	70	2349.3316688025
100	72	71	2339.9655844402
100	73	72	2334.2870217245
100	74	73	2338.974111551
100	76	74	2349.3284374638
100	77	75	2358.8295548063
100	78	76	2370.0129666373
100	79	77	2380.579094797
100	80	78	2390.6859398911
100	81	79	2399.8574308938
100	82	80	2408.6335913729
100	83	81	2417.2382080915
100	84	82	2424.5469584471
100	85	83	2430.7451177082
100	86	84	2432.2897795173
100	203	85	2434.1168060928
100	204	86	2436.1768778536
101	62	61	1578.4470566977
101	63	62	1579.5304835085
101	64	63	1581.5776641471
101	65	64	1586.7393832495
101	66	65	1593.2502876623
101	67	66	1601.1514685908
101	68	67	1610.3790278919
101	69	68	1620.2994661657
101	70	69	1630.2124201041
101	71	70	1640.1275348999
101	72	71	1650.4385319818
101	73	72	1662.7014437942
101	74	73	1674.6160694659
101	76	74	1683.36509181
101	77	75	1691.9334374061
101	78	76	1695.3207123373
101	79	77	1696.7940899236
101	80	78	1697.8948630029
101	81	79	1698.7620887235
101	82	80	1699.5919333035
101	83	81	1700.4055572748
101	84	82	1701.008799376
101	85	83	1704.7259228854
101	86	84	1714.8905830113
101	203	85	1726.9133468736
101	204	86	1740.4696665537
102	63	62	4.0669958154362
102	64	63	6.2068399783869
102	65	64	8.0999750929482
102	66	65	10.007615393125
102	67	66	11.90642927455
102	68	67	13.848578818812
102	69	68	13.986236289574
102	70	69	13.904448432892
102	71	70	13.881982666475
102	72	71	13.995116730593
102	73	72	13.970783820827
102	74	73	13.90773402134
102	76	74	13.230844814067
102	77	75	12.483461003019
102	78	76	11.526421699105
102	79	77	10.371132606584
102	80	78	9.5771708036758
102	81	79	9.3256094983272
102	82	80	7.9490423955416
102	83	81	9.3335268999069
102	84	82	7.024201203877
102	85	83	9.10473257183
102	86	84	11.094419546403
102	203	85	12.933553012187
102	204	86	13.905235173942
103	64	63	2.1398441629508
103	65	64	1.8931351145613
103	66	65	1.9076403001766
103	67	66	1.8988138814247
103	68	67	1.9421495442628
103	69	68	0.13765747076199
103	70	69	-0.081787856682203
103	71	70	-0.022465766416863
103	72	71	0.11313406411791
103	73	72	-0.024332909765652
103	74	73	-0.063049799487926
103	76	74	-0.67688920727286
103	77	75	-0.74738381104789
103	78	76	-0.95703930391358
103	79	77	-1.1552890925208
103	80	78	-0.79396180290865
103	81	79	-0.25156130534868
103	82	80	-1.3765671027855
103	83	81	1.3844845043653
103	84	82	-2.3093256960299
103	85	83	2.0805313679529
103	86	84	1.9896869745734
103	203	85	1.8391334657837
103	204	86	0.97168216175501
104	64	63	4.632389923731
104	65	64	5.2454139633713
104	66	65	6.2862716920294
104	67	66	7.2888421620435
104	68	67	8.5053453753004
104	69	68	2.5014364811771
104	70	69	1.7550145142452
104	71	70	1.9516373001603
104	72	71	2.4199281055534
104	73	72	1.9539266733996
104	74	73	1.8180898757894
104	76	74	0.973
104	77	75	0.973
104	78	76	0.973
104	79	77	0.973
104	80	78	0.973
104	81	79	0.973
104	82	80	0.973
104	83	81	4.7495931923743
104	84	82	0.973
104	85	83	6.1841213044895
104	86	84	7.0912802814604
104	203	85	7.6663285317713
104	204	86	5.2854274687024
105	65	64	2414.8785403735
105	66	65	2411.99181526
105	67	66	2407.3478407231
105	68	67	2402.2793208144
105	69	68	2395.7472089964
105	70	69	2387.8401030262
105	71	70	2379.2411312655
105	72	71	2370.6527007316
105	73	72	2362.077876669
105	74	73	2353.4820456705
105	76	74	2344.8852286021
105	77	75	2337.127255145
105	78	76	2333.9202780939
105	79	77	2339.894642845
105	80	78	2349.2250066106
105	81	79	2358.3047209134
105	82	80	2369.4849419915
105	83	81	2381.6029776076
105	84	82	2393.7611571958
105	85	83	2405.9362144027
105	86	84	2417.0953258891
105	203	85	2424.4796066305
105	204	86	2430.7523778202
106	65	64	1578.4500140669
106	66	65	1579.5100044627
106	67	66	1581.3651453648
106	68	67	1586.4988577655
106	69	68	1593.1149871387
106	70	69	1601.1237961603
106	71	70	1609.8333699135
106	72	71	1618.5322668562
106	73	72	1627.2173823174
106	74	73	1635.9237749111
106	76	74	1644.631166257
106	77	75	1654.0720352428
106	78	76	1665.5593936713
106	79	77	1675.3594538439
106	80	78	1683.2718152758
106	81	79	1691.4601290552
106	82	80	1695.2417893289
106	83	81	1696.9159548273
106	84	82	1698.1856453354
106	85	83	1699.3368782979
106	86	84	1700.3920468083
106	203	85	1701.0048992708
106	204	86	1704.7736981139
107	66	65	3.8981648366628
107	67	66	6.0284801283069
107	68	67	8.1279191345242
107	69	68	10.188796197973
107	70	69	12.203495420752
107	71	70	12.233969921606
107	72	71	12.196023925314
107	73	72	12.237332621344
107	74	73	12.25179548239
107	76	74	12.276128637175
107	77	75	12.267189970968
107	78	76	12.193032841684
107	79	77	12.241182193979
107	80	78	12.232759745206
107	81	79	12.243217713944
107	82	80	12.212027150988
107	83	81	12.188255692827
107	84	82	12.190591716149
107	85	83	12.254325866091
107	86	84	9.4603743799043
107	203	85	7.0903743799043
107	204	86	9.1542760416016
108	67	66	2.1303152916441
108	68	67	2.0994390062173
108	69	68	2.060877063449
108	70	69	2.0146992227784
108	71	70	0.030474500854664
108	72	71	-0.0379459962924
108	73	72	0.041308696030173
108	74	73	0.014462861046196
108	76	74	0.02433315478498
108	77	75	-0.0089386662072499
108	78	76	-0.074157129283995
108	79	77	0.048149352294859
108	80	78	-0.0084224487724711
108	81	79	0.010457968737464
108	82	80	-0.031190562956034
108	83	81	-0.023771458161065
108	84	82	0.0023360233218419
108	85	83	0.063734149942174
108	86	84	-2.7939514861864
108	203	85	-2.37
108	204	86	2.0639016616973
109	67	66	4.5161109943323
109	68	67	5.6641351303769
109	69	68	6.7597014368835
109	70	69	7.7919026777605
109	71	70	1.9591684591881
109	72	71	1.754385785764
109	73	72	1.9914470702654
109	74	73	1.913622454555
109	76	74	1.9450970995289
109	77	75	1.8458758525349
109	78	76	1.647738409042
109	79	77	2.0120117027638
109	80	78	1.84437909377
109	81	79	1.9010052820964
109	82	80	1.7755538912521
109	83	81	1.7953979251045
109	84	82	1.872295444693
109	85	83	2.0593711553925
109	86	84	0.973
109	203	85	0.973
109	204	86	6.1758090370982
110	68	67	2414.8749719874
110	69	68	2411.9589194277
110	70	69	2407.3319792068
110	71	70	2402.3511370892
110	72	71	2395.9635366373
110	73	72	2388.190717547
110	74	73	2379.1045907477
110	76	74	2369.3330305625
110	77	75	2359.5597517226
110	78	76	2349.7812968775
110	79	77	2340.3986158449
110	80	78	2334.4072626109
110	81	79	2338.3734021214
110	82	80	2349.0052171453
110	83	81	2359.3035496253
110	84	82	2372.0878458143
110	85	83	2385.2108940693
110	86	84	2397.6580606496
110	203	85	2407.2637499264
110	204	86	2416.5567330455
111	68	67	1578.4513243595
111	69	68	1579.5220836401
111	70	69	1581.3812108962
111	71	70	1586.4261177732
111	72	71	1592.8958770409
111	73	72	1600.7686719541
111	74	73	1609.9716666481
111	76	74	1619.868910932
111	77	75	1629.7678959779
111	78	76	1639.6721236035
111	79	77	1649.8841843856
111	80	78	1661.9773065159
111	81	79	1674.1309604766
111	82	80	1683.073603631
111	83	81	1692.3608978055
111	84	82	1695.6308412449
111	85	83	1697.3453774024
111	86	84	1698.5541235795
111	203	85	1699.4624056472
111	204	86	1700.3411192587
112	69	68	3.9138527874002
112	70	69	5.9192978859605
112	71	70	8.0041052656929
112	72	71	9.9190947462647
112	73	72	11.93869398969
112	74	73	13.787726265377
112	76	74	13.959862501691
112	77	75	13.916497686396
112	78	76	13.903849042375
112	79	77	13.841780013395
112	80	78	13.903738539051
112	81	79	13.957238916755
112	82	80	13.885093670199
112	83	81	13.737171009068
112	84	82	13.351804498101
112	85	83	13.128462715055
112	86	84	11.339253752068
112	203	85	8.8682446010465
112	204	86	9.6154971252693
113	70	69	2.0054450985603
113	71	70	2.0848073797324
113	72	71	1.9149894805718
113	73	72	2.0195992434258
113	74	73	1.849032275686
113	76	74	0.17213623631453
113	77	75	-0.043364815295208
113	78	76	-0.012648644021247
113	79	77	-0.062069028979167
113	80	78	0.061958525655792
113	81	79	0.053500377703458
113	82	80	-0.072145246556028
113	83	81	-0.14792266113038
113	84	82	-0.38536651096772
113	85	83	-0.22334178304574
113	86	84	-1.7892089629867
113	203	85	-2.4710091510216
113	204	86	0.74725252422276
114	70	69	4.2755756814399
114	71	70	5.5650601479823
114	72	71	6.2564377861525
114	73	72	7.6539611413108
114	74	73	8.1612932173629
114	76	74	2.6138600023553
114	77	75	1.8848705398596
114	78	76	1.9866388836437
114	79	77	1.8156634112585
114	80	78	2.2366217474785
114	81	79	2.2144281398191
114	82	80	1.7856938966798
114	83	81	1.5224371962777
114	84	82	0.973
114	85	83	1.2457054241479
114	86	84	0.973
114	203	85	0.973
114	204	86	3.3876132362595
115	71	70	2414.8466143712
115	72	71	2411.7997547687
115	73	72	2407.0811259353
115	74	73	2402.0761409466
115	76	74	2395.6372608572
115	77	75	2388.3737350554
115	78	76	2381.1144871333
115	79	77	2373.8657984326
115	80	78	2366.6015466114
115	81	79	2359.3422001607
115	82	80	2352.0702029787
115	83	81	2344.8070674029
115	84	82	2338.2171133686
115	85	83	2334.4093308892
115	86	84	2335.7220397764
115	203	85	2343.6716711519
115	204	86	2351.4291998718
116	71	70	1578.461737128
116	72	71	1579.580528073
116	73	72	1581.6352907009
116	74	73	1586.7046509804
116	76	74	1593.2263494562
116	77	75	1600.5833004313
116	78	76	1607.9359185034
116	79	77	1615.2778415382
116	80	78	1622.6355278706
116	81	79	1629.9882457387
116	82	80	1637.3537770547
116	83	81	1644.7103327839
116	84	82	1652.6768470891
116	85	83	1661.9648505412
116	86	84	1671.7829659134
116	203	85	1678.4096313426
116	204	86	1685.259611968
117	72	71	4.0822767602541
117	73	72	6.0325825172552
117	74	73	7.9836070922558
117	76	74	10.16803795825
117	77	75	10.357509782871
117	78	76	10.28692368374
117	79	77	10.35169753317
117	80	78	10.399557999929
117	81	79	10.298954539963
117	82	80	10.393676536582
117	83	81	10.290592894696
117	84	82	10.340276818841
117	85	83	10.370890831524
117	86	84	10.353971946829
117	203	85	10.403843473632
117	204	86	10.338158944142
118	73	72	1.950305757001
118	74	73	1.9510245750006
118	76	74	2.1844308659947
118	77	75	0.18947182462048
118	78	76	-0.070586099131033
118	79	77	0.064773849430495
118	80	78	0.047860466758721
118	81	79	-0.10060345996637
118	82	80	0.094721996618899
118	83	81	-0.10308364188531
118	84	82	0.049683924145064
118	85	83	0.030614012682344
118	86	84	-0.016918884695041
118	203	85	0.049871526802891
118	204	86	-0.065684529489372
119	73	72	4.2567491398579
119	74	73	5.2960045170812
119	76	74	7.0505622783274
119	77	75	2.18524345924
119	78	76	1.5318086910591
119	79	77	1.8734335590936
119	80	78	1.8355274816467
119	81	79	1.458033107475
119	82	80	1.952382061676
119	83	81	1.4514359458116
119	84	82	1.8347613552564
119	85	83	1.7898515345418
119	86	84	1.6697978694915
119	203	85	1.8409545263593
119	204	86	1.5471310102905
120	74	73	2414.8832684498
120	76	74	2412.050264145
120	77	75	2407.5050109568
120	78	76	2402.6513993262
120	79	77	2396.4842768448
120	80	78	2388.9737114951
120	81	79	2380.2128902539
120	82	80	2371.0754843967
120	83	81	2361.9520545767
120	84	82	2353.1284146787
120	85	83	2344.6681022807
120	86	84	2337.3003816684
120	203	85	2334.0075492864
120	204	86	2338.0691165617
121	74	73	1578.4482779419
121	76	74	1579.488542337
121	77	75	1581.205953571
121	78	76	1586.1219934933
121	79	77	1592.3684389507
121	80	78	1599.9756069537
121	81	79	1608.8491119333
121	82	80	1618.1040452486
121	83	81	1627.3448227635
121	84	82	1636.2819543872
121	85	83	1644.851085308
121	86	84	1653.8504063468
121	203	85	1664.3845352689
121	204	86	1673.885231588
122	76	74	3.8082199144774
122	77	75	5.7547309331099
122	78	76	7.7357008781812
122	79	77	9.5571004069705
122	80	78	11.534944528878
122	81	79	12.951763760283
122	82	80	13.000923946459
122	83	81	12.846488181384
122	84	82	12.235656174586
122	85	83	11.88571995485
122	86	84	11.539726848174
122	203	85	11.218325761041
122	204	86	11.004850072689
123	77	75	1.9465110186324
123	78	76	1.9809699450713
123	79	77	1.8213995287893
123	80	78	1.9778441219078
123	81	79	1.4168192314046
123	82	80	0.049160186175722
123	83	81	-0.15443576507433
123	84	82	-0.61083200679831
123	85	83	-0.34993621973571
123	86	84	-0.34599310667622
123	203	85	-0.3214010871335
123	204	86	-0.21347568835114
124	77	75	4.1048106638714
124	78	76	5.2190635755956
124	79	77	5.8468334995532
124	80	78	7.3064787702114
124	81	79	6.3579228807833
124	82	80	2.0941940574954
124	83	81	1.4474319713156
124	84	82	0.973
124	85	83	0.973
124	86	84	0.973
124	203	85	0.973
124	204	86	1.1978193939655
125	78	76	2414.8534491957
125	79	77	2411.8933626055
125	80	78	2407.2973062202
125	81	79	2402.4192810056
125	82	80	2396.2807900087
125	83	81	2388.8363425371
125	84	82	2379.9777458621
125	85	83	2370.2010487731
125	86	84	2360.4232259445
125	203	85	2350.6317384867
125	204	86	2341.1143039764
126	78	76	1578.4592274157
126	79	77	1579.5461557638
126	80	78	1581.4163298542
126	81	79	1586.3570973733
126	82	80	1592.5745430822
126	83	81	1600.1147427838
126	84	82	1609.0872808071
126	85	83	1618.989728068
126	86	84	1628.8933155481
126	203	85	1638.8107434148
126	204	86	1648.9679921865
127	79	77	3.9593459106842
127	80	78	5.9355981635698
127	81	79	7.7233481709403
127	82	80	9.632026919811
127	83	81	11.413655268042
127	84	82	13.483020181628
127	85	83	13.871832713971
127	86	84	13.948161519538
127	203	85	13.97064468944
127	204	86	13.920350540315
128	80	78	1.9762522528856
128	81	79	1.7877500073705
128	82	80	1.9086787488707
128	83	81	1.7816283482313
128	84	82	2.0693649135856
128	85	83	0.38881253234343
128	86	84	0.0763288055663
128	203	85	0.022483169902117
128	204	86	-0.050294149124529
129	80	78	4.2426390911706
129	81	79	4.8527203269654
129	82	80	6.087851894921
129	83	81	6.6986594318373
129	84	82	8.7110616626338
129	85	83	3.325610226101
129	86	84	2.2901213772548
129	203	85	2.1115394981022
129	204	86	1.861976426011
130	81	79	2414.8673328692
130	82	80	2411.8635825064
130	83	81	2407.1630790915
130	84	82	2402.1641609279
130	85	83	2395.6229651149
130	86	84	2387.6257340274
130	203	85	2378.3665609893
130	204	86	2368.8854663054
131	81	79	1578.4541294035
131	82	80	1579.5570908608
131	83	81	1581.5522834444
131	84	82	1586.615498866
131	85	83	1593.2408290738
131	86	84	1601.3409224236
131	203	85	1610.7191891177
131	204	86	1620.3222318655
132	82	80	4.1704515902617
132	83	81	5.9746228737093
132	84	82	8.0812127539667
132	85	83	10.213641023949
132	86	84	12.354204641284
132	203	85	13.455026774823
132	204	86	13.541646763426
133	83	81	1.8041712834476
133	84	82	2.1065898802574
133	85	83	2.1324282699823
133	86	84	2.1405636173347
133	203	85	1.1008221335393
133	204	86	0.086619988603051
134	83	81	4.0157150966975
134	84	82	5.6513268549196
134	85	83	6.950078594401
134	86	84	8.2533899589786
134	203	85	5.5536867215251
134	204	86	2.2753332501746
135	84	82	2414.8664386489
135	85	83	2411.7958362761
135	86	84	2406.8685865637
135	203	85	2401.6740092736
135	204	86	2395.099211253
136	84	82	1578.4544577571
136	85	83	1579.5819669226
136	86	84	1581.8505638037
136	203	85	1587.1119549656
136	204	86	1593.7713195812
137	85	83	4.3071345022997
137	86	84	6.3642965014909
137	203	85	8.2841767349259
137	204	86	10.206808355379
138	86	84	2.0571619991912
138	203	85	1.919880233435
138	204	86	1.9226316204527
139	86	84	4.5960929286405
139	203	85	5.3951633534747
139	204	86	6.4299738095345
140	203	85	2414.8440919379
140	204	86	2411.9279356975
141	203	85	1578.4626633525
141	204	86	1579.5334607046
142	204	86	3.9617433946339

