version 2
run General-0-20210429-13:43:01-13297
attr configname General
attr datetime 20210429-13:43:01
attr experiment General
attr inifile omnetpp.ini
attr iterationvars ""
attr iterationvarsf ""
attr measurement ""
attr network WirelessNetwork
attr processid 13297
attr repetition 0
attr replication #0
attr resultdir results
attr runnumber 0
attr seedset 0
param *.host*.ipv4.arp.typename "\"GlobalArp\""
param *.hostA.numApps 1
param *.hostA.app[0].typename "\"UdpBasicApp\""
param *.hostA.app[0].destAddresses "\"hostB\""
param *.hostA.app[0].destPort 5000
param *.hostA.app[0].messageLength 1000B
param *.hostA.app[0].sendInterval exponential(12ms)
param *.hostA.app[0].packetName "\"UDPData\""
param *.hostB.numApps 1
param *.hostB.app[0].typename "\"UdpSink\""
param *.hostB.app[0].localPort 5000
param *.host*.wlan[0].typename "\"AckingWirelessInterface\""
param *.host*.wlan[0].mac.useAck false
param *.host*.wlan[0].mac.fullDuplex false
param *.host*.wlan[0].radio.transmitter.communicationRange 500m
param *.host*.wlan[0].radio.receiver.ignoreInterference true
param *.host*.wlan[0].mac.headerLength 23B
param *.host*.**.bitrate 1Mbps
param **.radio.displayCommunicationRange true
param *.visualizer.mediumVisualizer.displaySignals true
param *.visualizer.physicalLinkVisualizer.displayLinks true
param *.visualizer.physicalLinkVisualizer.packetFilter "\"UDPData*\""
param *.visualizer.mobilityVisualizer.displayVelocities true
param *.visualizer.mobilityVisualizer.displayMovementTrails true
param *.hostA.mobility.typename "\"LinearMobility\""
param *.hostA.mobility.speed 12mps
param *.hostA.mobility.initialMovementHeading 200deg

vector 0 WirelessNetwork.hostA.wlan[0].radio radioMode:vector ETV
attr interpolationmode sample-hold
attr source radioModeChanged
attr title "Radio mode, vector"
vector 1 WirelessNetwork.hostB.wlan[0].radio radioMode:vector ETV
attr interpolationmode sample-hold
attr source radioModeChanged
attr title "Radio mode, vector"
vector 2 WirelessNetwork.hostA.wlan[0].radio receptionState:vector ETV
attr interpolationmode sample-hold
attr source receptionStateChanged
attr title "Radio reception state, vector"
vector 3 WirelessNetwork.hostB.wlan[0].radio receptionState:vector ETV
attr interpolationmode sample-hold
attr source receptionStateChanged
attr title "Radio reception state, vector"
vector 4 WirelessNetwork.hostA.app[0] packetSent:vector(packetBytes) ETV
attr interpolationmode none
attr source packetSent
attr title "packets sent, vector(packetBytes)"
vector 5 WirelessNetwork.hostA.udp packetSent:vector(packetBytes) ETV
attr interpolationmode none
attr source packetSent
attr title "packets sent, vector(packetBytes)"
vector 6 WirelessNetwork.hostA.wlan[0].mac rcvdPkFromHl:vector(packetBytes) ETV
attr interpolationmode none
attr source packetReceivedFromUpper
attr title "packets received from higher layer, vector(packetBytes)"
vector 7 WirelessNetwork.hostA.wlan[0].mac.queue packetPushed:vector(packetBytes) ETV
attr interpolationmode none
attr title "packet pushed, vector(packetBytes)"
vector 8 WirelessNetwork.hostA.wlan[0].mac.queue queueLength:vector ETV
attr interpolationmode sample-hold
attr source "count(packetPushed) - count(packetPopped) - count(packetRemoved) - count(packetDropped)"
attr title "queue length, vector"
vector 9 WirelessNetwork.hostA.wlan[0].mac.queue packetPopped:vector(packetBytes) ETV
attr interpolationmode none
attr title "packet popped, vector(packetBytes)"
vector 10 WirelessNetwork.hostA.wlan[0].mac.queue queueingTime:vector ETV
attr interpolationmode none
attr source queueingTime(packetPopped)
attr title "queueing times, vector"
attr unit s
vector 11 WirelessNetwork.hostA.wlan[0].radio transmissionState:vector ETV
attr interpolationmode sample-hold
attr source transmissionStateChanged
attr title "Radio transmission state, vector"
vector 12 WirelessNetwork.hostA.wlan[0].mac sentDownPk:vector(packetBytes) ETV
attr interpolationmode none
attr source packetSentToLower
attr title "packets sent to lower layer, vector(packetBytes)"
vector 13 WirelessNetwork.hostB.wlan[0].mac rcvdPkFromLl:vector(packetBytes) ETV
attr interpolationmode none
attr source packetReceivedFromLower
attr title "packets received from lower layer, vector(packetBytes)"
vector 14 WirelessNetwork.hostB.wlan[0].mac passedUpPk:vector(packetBytes) ETV
attr interpolationmode none
attr source packetSentToUpper
attr title "packets passed to higher layer, vector(packetBytes)"
vector 15 WirelessNetwork.hostB.udp packetReceived:vector(packetBytes) ETV
attr interpolationmode none
attr source packetReceived
attr title "packets received, vector(packetBytes)"
vector 16 WirelessNetwork.hostB.udp passedUpPk:vector(count) ETV
attr interpolationmode none
attr source packetSentToUpper
attr title "packets passed up, vector(count)"
vector 17 WirelessNetwork.hostB.app[0] packetReceived:vector(packetBytes) ETV
attr interpolationmode none
attr source packetReceived
attr title "packets received, vector(packetBytes)"
vector 18 WirelessNetwork.hostB.app[0] endToEndDelay:vector ETV
attr interpolationmode none
attr source dataAge(packetReceived)
attr title "end-to-end delay, vector"
attr unit s
vector 19 WirelessNetwork.hostB.app[0] rcvdPkSeqNo:vector ETV
attr interpolationmode none
attr source appPkSeqNo(packetReceived)
attr title "received packet sequence number, vector"
vector 20 WirelessNetwork.hostB.app[0] throughput:vector ETV
attr source throughput(packetReceived)
attr title "throughput, vector"
attr unit bps
vector 21 WirelessNetwork.hostA.app[0] throughput:vector ETV
attr source throughput(packetReceived)
attr title "throughput, vector"
attr unit bps
0	0	0	0
0	0	0	0
0	0	0	2
0	8	0.022315250545	3
0	15	0.030819250545	2
0	15	0.030819250545	3
0	23	0.039323250545	2
0	33	0.041385743993	3
0	41	0.049889743993	2
0	41	0.049889743993	3
0	49	0.058393743993	2
0	60	0.07497426742	3
0	63	0.08347826742	2
0	74	0.114753214779	3
0	81	0.123257214779	2
0	81	0.123257214779	3
0	89	0.131761214779	2
0	99	0.139383193449	3
0	103	0.147887193449	2
0	112	0.148415282809	3
0	115	0.156919282809	2
0	125	0.158488477044	3
0	129	0.166992477044	2
0	139	0.189667526074	3
0	154	0.198171526074	2
0	154	0.198171526074	3
0	163	0.206675526074	2
0	163	0.206675526074	3
0	176	0.215179526074	2
0	176	0.215179526074	3
0	185	0.223683526074	2
0	185	0.223683526074	3
0	198	0.232187526074	2
0	198	0.232187526074	3
0	207	0.240691526074	2
0	218	0.255893823874	3
0	221	0.264397823874	2
0	232	0.302036486304	3
0	235	0.310540486304	2
0	245	0.321299360989	3
0	252	0.329803360989	2
0	252	0.329803360989	3
0	260	0.338307360989	2
0	270	0.346924946193	3
0	278	0.355428946193	2
0	278	0.355428946193	3
0	294	0.363932946193	2
0	294	0.363932946193	3
0	303	0.372436946193	2
0	303	0.372436946193	3
0	312	0.380940946193	2
0	323	0.3972824235	3
0	327	0.4057864235	2
0	336	0.406136351001	3
0	343	0.414640351001	2
0	343	0.414640351001	3
0	356	0.423144351001	2
0	356	0.423144351001	3
0	365	0.431648351001	2
0	375	0.434109561779	3
0	383	0.442613561779	2
0	383	0.442613561779	3
0	391	0.451117561779	2
0	400	0.451502567324	3
0	408	0.460006567324	2
0	408	0.460006567324	3
0	421	0.468510567324	2
0	421	0.468510567324	3
0	434	0.477014567324	2
0	434	0.477014567324	3
0	443	0.485518567324	2
0	452	0.486145297277	3
0	456	0.494649297277	2
0	468	0.520680277532	3
0	471	0.529184277532	2
0	480	0.534421944988	3
0	488	0.542925944988	2
0	488	0.542925944988	3
0	500	0.551429944988	2
0	500	0.551429944988	3
0	509	0.559933944988	2
0	518	0.561015849403	3
0	526	0.569519849403	2
0	526	0.569519849403	3
0	539	0.578023849403	2
0	539	0.578023849403	3
0	548	0.586527849403	2
0	558	0.588275351848	3
0	570	0.596779351848	2
0	570	0.596779351848	3
0	587	0.605283351848	2
0	587	0.605283351848	3
0	600	0.613787351848	2
0	600	0.613787351848	3
0	613	0.622291351848	2
0	613	0.622291351848	3
0	622	0.630795351848	2
0	622	0.630795351848	3
0	631	0.639299351848	2
0	631	0.639299351848	3
0	640	0.647803351848	2
0	651	0.673253932282	3
0	666	0.681757932282	2
0	666	0.681757932282	3
0	674	0.690261932282	2
0	674	0.690261932282	3
0	691	0.698765932282	2
0	691	0.698765932282	3
0	709	0.707269932282	2
0	709	0.707269932282	3
0	726	0.715773932282	2
0	726	0.715773932282	3
0	739	0.724277932282	2
0	739	0.724277932282	3
0	756	0.732781932282	2
0	756	0.732781932282	3
0	769	0.741285932282	2
0	769	0.741285932282	3
0	778	0.749789932282	2
0	778	0.749789932282	3
0	795	0.758293932282	2
0	795	0.758293932282	3
0	804	0.766797932282	2
0	804	0.766797932282	3
0	813	0.775301932282	2
0	813	0.775301932282	3
0	830	0.783805932282	2
0	830	0.783805932282	3
0	839	0.792309932282	2
0	839	0.792309932282	3
0	849	0.800813932282	2
0	849	0.800813932282	3
0	858	0.809317932282	2
0	858	0.809317932282	3
0	867	0.817821932282	2
0	867	0.817821932282	3
0	880	0.826325932282	2
0	880	0.826325932282	3
0	893	0.834829932282	2
0	893	0.834829932282	3
0	902	0.843333932282	2
0	913	0.875445285936	3
0	916	0.883949285936	2
0	925	0.886587027899	3
0	929	0.895091027899	2
0	939	0.902717971165	3
0	955	0.911221971165	2
0	955	0.911221971165	3
0	975	0.919725971165	2
0	975	0.919725971165	3
0	992	0.928229971165	2
0	992	0.928229971165	3
0	1001	0.936733971165	2
0	1001	0.936733971165	3
0	1014	0.945237971165	2
0	1014	0.945237971165	3
0	1027	0.953741971165	2
0	1027	0.953741971165	3
0	1040	0.962245971165	2
0	1040	0.962245971165	3
0	1057	0.970749971165	2
0	1057	0.970749971165	3
0	1070	0.979253971165	2
0	1070	0.979253971165	3
0	1079	0.987757971165	2
0	1079	0.987757971165	3
0	1088	0.996261971165	2
0	1088	0.996261971165	3
0	1098	1.004765971165	2
0	1098	1.004765971165	3
0	1115	1.013269971165	2
0	1115	1.013269971165	3
0	1124	1.021773971165	2
0	1124	1.021773971165	3
0	1141	1.030277971165	2
0	1141	1.030277971165	3
0	1150	1.038781971165	2
0	1150	1.038781971165	3
0	1167	1.047285971165	2
0	1167	1.047285971165	3
0	1180	1.055789971165	2
0	1180	1.055789971165	3
0	1197	1.064293971165	2
0	1197	1.064293971165	3
0	1206	1.072797971165	2
0	1206	1.072797971165	3
0	1223	1.081301971165	2
0	1223	1.081301971165	3
0	1232	1.089805971165	2
0	1232	1.089805971165	3
0	1249	1.098309971165	2
0	1249	1.098309971165	3
0	1259	1.106813971165	2
0	1259	1.106813971165	3
0	1272	1.115317971165	2
0	1272	1.115317971165	3
0	1281	1.123821971165	2
0	1281	1.123821971165	3
0	1290	1.132325971165	2
0	1290	1.132325971165	3
0	1299	1.140829971165	2
0	1299	1.140829971165	3
0	1308	1.149333971165	2
0	1318	1.152161667644	3
0	1326	1.160665667644	2
0	1326	1.160665667644	3
0	1338	1.169169667644	2
0	1338	1.169169667644	3
0	1351	1.177673667644	2
0	1351	1.177673667644	3
0	1360	1.186177667644	2
0	1369	1.186844375116	3
0	1377	1.195348375116	2
0	1377	1.195348375116	3
0	1387	1.203852375116	2
0	1398	1.226500794914	3
0	1405	1.235004794914	2
0	1405	1.235004794914	3
0	1413	1.243508794914	2
0	1424	1.256093801801	3
0	1427	1.264597801801	2
0	1436	1.270520664608	3
0	1444	1.279024664608	2
0	1444	1.279024664608	3
0	1452	1.287528664608	2
0	1462	1.294927972662	3
0	1471	1.303431972662	2
0	1471	1.303431972662	3
0	1479	1.311935972662	2
0	1490	1.326542190388	3
0	1493	1.335046190388	2
0	1502	1.336988620304	3
0	1506	1.345492620304	2
0	1516	1.362606585704	3
0	1519	1.371110585704	2
0	1528	1.376759180908	3
0	1532	1.385263180908	2
0	1541	1.392262092134	3
0	1550	1.400766092134	2
0	1550	1.400766092134	3
0	1558	1.409270092134	2
0	1569	1.438117305957	3
0	1572	1.446621305957	2
0	1581	1.450510870085	3
0	1589	1.459014870085	2
0	1589	1.459014870085	3
0	1597	1.467518870085	2
0	1606	1.468316456532	3
0	1618	1.476820456532	2
0	1618	1.476820456532	3
0	1627	1.485324456532	2
0	1627	1.485324456532	3
0	1644	1.493828456532	2
0	1644	1.493828456532	3
0	1658	1.502332456532	2
0	1658	1.502332456532	3
0	1675	1.510836456532	2
0	1675	1.510836456532	3
0	1688	1.519340456532	2
0	1688	1.519340456532	3
0	1701	1.527844456532	2
0	1701	1.527844456532	3
0	1714	1.536348456532	2
0	1714	1.536348456532	3
0	1723	1.544852456532	2
0	1723	1.544852456532	3
0	1736	1.553356456532	2
0	1736	1.553356456532	3
0	1749	1.561860456532	2
0	1749	1.561860456532	3
0	1758	1.570364456532	2
0	1758	1.570364456532	3
0	1775	1.578868456532	2
0	1775	1.578868456532	3
0	1784	1.587372456532	2
0	1784	1.587372456532	3
0	1793	1.595876456532	2
0	1804	1.604662398509	3
0	1812	1.613166398509	2
0	1812	1.613166398509	3
0	1824	1.621670398509	2
0	1824	1.621670398509	3
0	1833	1.630174398509	2
0	1844	1.64372898762	3
0	1847	1.65223298762	2
0	1857	1.663419758555	3
0	1860	1.671923758555	2
0	1869	1.678023992499	3
0	1877	1.686527992499	2
0	1877	1.686527992499	3
0	1885	1.695031992499	2
0	1897	1.709522729784	3
0	1900	1.718026729784	2
0	1909	1.724554020083	3
0	1913	1.733058020083	2
0	1924	1.805738706322	3
0	1931	1.814242706322	2
0	1931	1.814242706322	3
0	1939	1.822746706322	2
0	1949	1.831992053168	3
0	1957	1.840496053168	2
0	1957	1.840496053168	3
0	1973	1.849000053168	2
0	1973	1.849000053168	3
0	1982	1.857504053168	2
0	1982	1.857504053168	3
0	1991	1.866008053168	2
0	2001	1.869784908311	3
0	2005	1.878288908311	2
0	2015	1.889545537527	3
0	2018	1.898049537527	2
0	2027	1.899648109068	3
0	2040	1.908152109068	2
0	2040	1.908152109068	3
0	2048	1.916656109068	2
0	2048	1.916656109068	3
0	2061	1.925160109068	2
0	2061	1.925160109068	3
0	2074	1.933664109068	2
0	2074	1.933664109068	3
0	2083	1.942168109068	2
0	2093	1.943743516144	3
0	2097	1.952247516144	2
0	2107	1.967896788978	3
0	2110	1.976400788978	2
0	2121	2.012416316081	3
0	2124	2.020920316081	2
0	2134	2.035655242931	3
0	2145	2.044159242931	2
0	2145	2.044159242931	3
0	2153	2.052663242931	2
0	2153	2.052663242931	3
0	2170	2.061167242931	2
0	2170	2.061167242931	3
0	2187	2.069671242931	2
0	2187	2.069671242931	3
0	2204	2.078175242931	2
0	2204	2.078175242931	3
0	2213	2.086679242931	2
0	2213	2.086679242931	3
0	2230	2.095183242931	2
0	2230	2.095183242931	3
0	2244	2.103687242931	2
0	2244	2.103687242931	3
0	2253	2.112191242931	2
0	2253	2.112191242931	3
0	2262	2.120695242931	2
0	2262	2.120695242931	3
0	2271	2.129199242931	2
0	2271	2.129199242931	3
0	2284	2.137703242931	2
0	2284	2.137703242931	3
0	2301	2.146207242931	2
0	2301	2.146207242931	3
0	2314	2.154711242931	2
0	2314	2.154711242931	3
0	2327	2.163215242931	2
0	2327	2.163215242931	3
0	2340	2.171719242931	2
0	2340	2.171719242931	3
0	2353	2.180223242931	2
0	2353	2.180223242931	3
0	2362	2.188727242931	2
0	2362	2.188727242931	3
0	2371	2.197231242931	2
0	2382	2.205260755149	3
0	2386	2.213764755149	2
0	2395	2.21668271164	3
0	2399	2.22518671164	2
0	2408	2.225887667495	3
0	2411	2.234391667495	2
0	2421	2.236584210418	3
0	2425	2.245088210418	2
0	2434	2.252301634874	3
0	2442	2.260805634874	2
0	2442	2.260805634874	3
0	2462	2.269309634874	2
0	2462	2.269309634874	3
0	2471	2.277813634874	2
0	2471	2.277813634874	3
0	2480	2.286317634874	2
0	2480	2.286317634874	3
0	2489	2.294821634874	2
0	2500	2.302850240863	3
0	2504	2.311354240863	2
0	2513	2.318994410062	3
0	2521	2.327498410062	2
0	2521	2.327498410062	3
0	2541	2.336002410062	2
0	2541	2.336002410062	3
0	2554	2.344506410062	2
0	2554	2.344506410062	3
0	2567	2.353010410062	2
0	2567	2.353010410062	3
0	2580	2.361514410062	2
0	2580	2.361514410062	3
0	2605	2.370018410062	2
0	2605	2.370018410062	3
0	2614	2.378522410062	2
0	2614	2.378522410062	3
0	2627	2.387026410062	2
0	2627	2.387026410062	3
0	2640	2.395530410062	2
0	2640	2.395530410062	3
0	2654	2.404034410062	2
0	2654	2.404034410062	3
0	2663	2.412538410062	2
0	2663	2.412538410062	3
0	2672	2.421042410062	2
0	2672	2.421042410062	3
0	2685	2.429546410062	2
0	2685	2.429546410062	3
0	2694	2.438050410062	2
0	2694	2.438050410062	3
0	2703	2.446554410062	2
0	2703	2.446554410062	3
0	2712	2.455058410062	2
0	2723	2.482298732409	3
0	2730	2.490802732409	2
0	2730	2.490802732409	3
0	2742	2.499306732409	2
0	2742	2.499306732409	3
0	2760	2.507810732409	2
0	2760	2.507810732409	3
0	2769	2.516314732409	2
0	2769	2.516314732409	3
0	2786	2.524818732409	2
0	2786	2.524818732409	3
0	2799	2.533322732409	2
0	2799	2.533322732409	3
0	2812	2.541826732409	2
0	2812	2.541826732409	3
0	2821	2.550330732409	2
0	2821	2.550330732409	3
0	2830	2.558834732409	2
0	2840	2.561669400952	3
0	2844	2.570173400952	2
0	2853	2.573567452467	3
0	2857	2.582071452467	2
0	2867	2.598297307358	3
0	2875	2.606801307358	2
0	2875	2.606801307358	3
0	2883	2.615305307358	2
0	2893	2.621328836518	3
0	2901	2.629832836518	2
0	2901	2.629832836518	3
0	2909	2.638336836518	2
0	2920	2.660431225778	3
0	2923	2.668935225778	2
0	2932	2.674388585179	3
0	2940	2.682892585179	2
0	2940	2.682892585179	3
0	2948	2.691396585179	2
0	2960	2.712634970432	3
0	2963	2.721138970432	2
0	2972	2.728385066348	3
0	2984	2.736889066348	2
0	2984	2.736889066348	3
0	3000	2.745393066348	2
0	3000	2.745393066348	3
0	3017	2.753897066348	2
0	3017	2.753897066348	3
0	3030	2.762401066348	2
0	3030	2.762401066348	3
0	3047	2.770905066348	2
0	3047	2.770905066348	3
0	3056	2.779409066348	2
0	3056	2.779409066348	3
0	3069	2.787913066348	2
0	3069	2.787913066348	3
0	3078	2.796417066348	2
0	3078	2.796417066348	3
0	3092	2.804921066348	2
0	3092	2.804921066348	3
0	3105	2.813425066348	2
0	3105	2.813425066348	3
0	3122	2.821929066348	2
0	3122	2.821929066348	3
0	3131	2.830433066348	2
0	3131	2.830433066348	3
0	3148	2.838937066348	2
0	3148	2.838937066348	3
0	3157	2.847441066348	2
0	3157	2.847441066348	3
0	3178	2.855945066348	2
0	3178	2.855945066348	3
0	3191	2.864449066348	2
0	3191	2.864449066348	3
0	3204	2.872953066348	2
0	3204	2.872953066348	3
0	3213	2.881457066348	2
0	3213	2.881457066348	3
0	3222	2.889961066348	2
0	3222	2.889961066348	3
0	3231	2.898465066348	2
0	3231	2.898465066348	3
0	3245	2.906969066348	2
0	3245	2.906969066348	3
0	3254	2.915473066348	2
0	3254	2.915473066348	3
0	3267	2.923977066348	2
0	3267	2.923977066348	3
0	3276	2.932481066348	2
0	3285	2.933378235419	3
0	3289	2.941882235419	2
0	3300	2.961464138947	3
0	3307	2.969968138947	2
0	3307	2.969968138947	3
0	3319	2.978472138947	2
0	3319	2.978472138947	3
0	3332	2.986976138947	2
0	3332	2.986976138947	3
0	3341	2.995480138947	2
0	3353	3.021910680853	3
0	3364	3.030414680853	2
0	3364	3.030414680853	3
0	3380	3.038918680853	2
0	3380	3.038918680853	3
0	3389	3.047422680853	2
0	3389	3.047422680853	3
0	3398	3.055926680853	2
0	3398	3.055926680853	3
0	3411	3.064430680853	2
0	3411	3.064430680853	3
0	3420	3.072934680853	2
0	3430	3.075961909561	3
0	3434	3.084465909561	2
0	3443	3.094415854135	3
0	3452	3.102919854135	2
0	3452	3.102919854135	3
0	3468	3.111423854135	2
0	3468	3.111423854135	3
0	3481	3.119927854135	2
0	3481	3.119927854135	3
0	3490	3.128431854135	2
0	3490	3.128431854135	3
0	3499	3.136935854135	2
0	3510	3.163280421768	3
0	3513	3.171784421768	2
0	3523	3.188379100639	3
0	3530	3.196883100639	2
0	3530	3.196883100639	3
0	3539	3.205387100639	2
0	3550	3.232438910766	3
0	3557	3.240942910766	2
0	3557	3.240942910766	3
0	3565	3.249446910766	2
0	3576	3.271388244226	3
0	3579	3.279892244226	2
0	3590	3.305427926547	3
0	3593	3.313931926547	2
0	3603	3.324693431704	3
0	3606	3.333197431704	2
0	3615	3.336638995424	3
0	3619	3.345142995424	2
0	3629	3.361524132981	3
0	3636	3.370028132981	2
0	3636	3.370028132981	3
0	3644	3.378532132981	2
0	3654	3.388366393003	3
0	3658	3.396870393003	2
0	3667	3.399910536122	3
0	3684	3.408414536122	2
0	3684	3.408414536122	3
0	3692	3.416918536122	2
0	3692	3.416918536122	3
0	3701	3.425422536122	2
0	3701	3.425422536122	3
0	3710	3.433926536122	2
0	3721	3.455208273796	3
0	3728	3.463712273796	2
0	3728	3.463712273796	3
0	3740	3.472216273796	2
0	3740	3.472216273796	3
0	3749	3.480720273796	2
0	3759	3.483515408701	3
0	3771	3.492019408701	2
0	3771	3.492019408701	3
0	3780	3.500523408701	2
0	3780	3.500523408701	3
0	3789	3.509027408701	2
0	3799	3.511519205519	3
0	3807	3.520023205519	2
0	3807	3.520023205519	3
0	3827	3.528527205519	2
0	3827	3.528527205519	3
0	3836	3.537031205519	2
0	3836	3.537031205519	3
0	3845	3.545535205519	2
0	3845	3.545535205519	3
0	3858	3.554039205519	2
0	3858	3.554039205519	3
0	3867	3.562543205519	2
0	3878	3.594011881851	3
0	3882	3.602515881851	2
0	3892	3.632891437454	3
0	3895	3.641395437454	2
0	3905	3.661336088421	3
0	3908	3.669840088421	2
0	3917	3.679185245473	3
0	3929	3.687689245473	2
0	3929	3.687689245473	3
0	3945	3.696193245473	2
0	3945	3.696193245473	3
0	3963	3.704697245473	2
0	3963	3.704697245473	3
0	3980	3.713201245473	2
0	3980	3.713201245473	3
0	3989	3.721705245473	2
0	3989	3.721705245473	3
0	4002	3.730209245473	2
0	4002	3.730209245473	3
0	4023	3.738713245473	2
0	4023	3.738713245473	3
0	4032	3.747217245473	2
0	4032	3.747217245473	3
0	4049	3.755721245473	2
0	4049	3.755721245473	3
0	4062	3.764225245473	2
0	4062	3.764225245473	3
0	4075	3.772729245473	2
0	4075	3.772729245473	3
0	4084	3.781233245473	2
0	4084	3.781233245473	3
0	4093	3.789737245473	2
0	4093	3.789737245473	3
0	4106	3.798241245473	2
0	4106	3.798241245473	3
0	4120	3.806745245473	2
0	4120	3.806745245473	3
0	4141	3.815249245473	2
0	4141	3.815249245473	3
0	4158	3.823753245473	2
0	4158	3.823753245473	3
0	4171	3.832257245473	2
0	4171	3.832257245473	3
0	4180	3.840761245473	2
0	4180	3.840761245473	3
0	4193	3.849265245473	2
0	4193	3.849265245473	3
0	4206	3.857769245473	2
0	4206	3.857769245473	3
0	4223	3.866273245473	2
0	4223	3.866273245473	3
0	4236	3.874777245473	2
0	4236	3.874777245473	3
0	4245	3.883281245473	2
0	4245	3.883281245473	3
0	4262	3.891785245473	2
0	4262	3.891785245473	3
0	4272	3.900289245473	2
0	4272	3.900289245473	3
0	4285	3.908793245473	2
0	4285	3.908793245473	3
0	4294	3.917297245473	2
0	4294	3.917297245473	3
0	4307	3.925801245473	2
0	4307	3.925801245473	3
0	4316	3.934305245473	2
0	4316	3.934305245473	3
0	4333	3.942809245473	2
0	4333	3.942809245473	3
0	4346	3.951313245473	2
0	4346	3.951313245473	3
0	4359	3.959817245473	2
0	4359	3.959817245473	3
0	4376	3.968321245473	2
0	4376	3.968321245473	3
0	4389	3.976825245473	2
0	4389	3.976825245473	3
0	4406	3.985329245473	2
0	4406	3.985329245473	3
0	4415	3.993833245473	2
0	4415	3.993833245473	3
0	4433	4.002337245473	2
0	4433	4.002337245473	3
0	4446	4.010841245473	2
0	4446	4.010841245473	3
0	4459	4.019345245473	2
0	4459	4.019345245473	3
0	4472	4.027849245473	2
0	4472	4.027849245473	3
0	4481	4.036353245473	2
0	4481	4.036353245473	3
0	4490	4.044857245473	2
0	4490	4.044857245473	3
0	4499	4.053361245473	2
0	4499	4.053361245473	3
0	4512	4.061865245473	2
0	4512	4.061865245473	3
0	4521	4.070369245473	2
0	4521	4.070369245473	3
0	4538	4.078873245473	2
0	4538	4.078873245473	3
0	4551	4.087377245473	2
0	4551	4.087377245473	3
0	4564	4.095881245473	2
0	4564	4.095881245473	3
0	4578	4.104385245473	2
0	4578	4.104385245473	3
0	4591	4.112889245473	2
0	4591	4.112889245473	3
0	4608	4.121393245473	2
0	4608	4.121393245473	3
0	4621	4.129897245473	2
0	4621	4.129897245473	3
0	4630	4.138401245473	2
0	4630	4.138401245473	3
0	4639	4.146905245473	2
0	4639	4.146905245473	3
0	4648	4.155409245473	2
0	4648	4.155409245473	3
0	4665	4.163913245473	2
0	4665	4.163913245473	3
0	4674	4.172417245473	2
0	4674	4.172417245473	3
0	4683	4.180921245473	2
0	4683	4.180921245473	3
0	4692	4.189425245473	2
0	4701	4.190880830901	3
0	4705	4.199384830901	2
0	4716	4.200298875136	3
0	4723	4.208802875136	2
0	4723	4.208802875136	3
0	4732	4.217306875136	2
0	4743	4.233273729561	3
0	4750	4.241777729561	2
0	4750	4.241777729561	3
0	4758	4.250281729561	2
0	4768	4.256092523779	3
0	4776	4.264596523779	2
0	4776	4.264596523779	3
0	4784	4.273100523779	2
0	4795	4.290329389311	3
0	4798	4.298833389311	2
0	4808	4.30438455365	3
0	4812	4.31288855365	2
0	4821	4.318817119056	3
0	4829	4.327321119056	2
0	4829	4.327321119056	3
0	4837	4.335825119056	2
0	4847	4.34054749041	3
0	4851	4.34905149041	2
0	4860	4.352676720367	3
0	4872	4.361180720367	2
0	4872	4.361180720367	3
0	4880	4.369684720367	2
0	4880	4.369684720367	3
0	4893	4.378188720367	2
0	4893	4.378188720367	3
0	4902	4.386692720367	2
0	4914	4.415547956405	3
0	4921	4.424051956405	2
0	4921	4.424051956405	3
0	4929	4.432555956405	2
0	4938	4.433628918575	3
0	4942	4.442132918575	2
0	4953	4.457028641517	3
0	4960	4.465532641517	2
0	4960	4.465532641517	3
0	4968	4.474036641517	2
0	4980	4.500768643121	3
0	4983	4.509272643121	2
0	4992	4.511057864352	3
0	4996	4.519561864352	2
0	5006	4.531686696093	3
0	5009	4.540190696093	2
0	5019	4.560428853566	3
0	5022	4.568932853566	2
0	5032	4.580711673023	3
0	5039	4.589215673023	2
0	5039	4.589215673023	3
0	5051	4.597719673023	2
0	5051	4.597719673023	3
0	5069	4.606223673023	2
0	5069	4.606223673023	3
0	5086	4.614727673023	2
0	5086	4.614727673023	3
0	5095	4.623231673023	2
0	5095	4.623231673023	3
0	5104	4.631735673023	2
0	5104	4.631735673023	3
0	5121	4.640239673023	2
0	5121	4.640239673023	3
0	5130	4.648743673023	2
0	5130	4.648743673023	3
0	5139	4.657247673023	2
0	5150	4.673199466141	3
0	5157	4.681703466141	2
0	5157	4.681703466141	3
0	5177	4.690207466141	2
0	5177	4.690207466141	3
0	5190	4.698711466141	2
0	5190	4.698711466141	3
0	5200	4.707215466141	2
0	5200	4.707215466141	3
0	5209	4.715719466141	2
0	5209	4.715719466141	3
0	5218	4.724223466141	2
0	5227	4.72436341736	3
0	5235	4.73286741736	2
0	5235	4.73286741736	3
0	5244	4.74137141736	2
0	5255	4.760493645572	3
0	5258	4.768997645572	2
0	5268	4.784929175819	3
0	5275	4.793433175819	2
0	5275	4.793433175819	3
0	5292	4.801937175819	2
0	5292	4.801937175819	3
0	5301	4.810441175819	2
0	5301	4.810441175819	3
0	5326	4.818945175819	2
0	5326	4.818945175819	3
0	5347	4.827449175819	2
0	5347	4.827449175819	3
0	5372	4.835953175819	2
0	5372	4.835953175819	3
0	5381	4.844457175819	2
0	5381	4.844457175819	3
0	5394	4.852961175819	2
0	5394	4.852961175819	3
0	5403	4.861465175819	2
0	5403	4.861465175819	3
0	5412	4.869969175819	2
0	5412	4.869969175819	3
0	5421	4.878473175819	2
0	5421	4.878473175819	3
0	5430	4.886977175819	2
0	5430	4.886977175819	3
0	5443	4.895481175819	2
0	5443	4.895481175819	3
0	5453	4.903985175819	2
0	5453	4.903985175819	3
0	5462	4.912489175819	2
0	5462	4.912489175819	3
0	5471	4.920993175819	2
0	5471	4.920993175819	3
0	5480	4.929497175819	2
0	5491	4.944167199513	3
0	5502	4.952671199513	2
0	5502	4.952671199513	3
0	5510	4.961175199513	2
0	5510	4.961175199513	3
0	5523	4.969679199513	2
0	5523	4.969679199513	3
0	5536	4.978183199513	2
0	5536	4.978183199513	3
0	5545	4.986687199513	2
0	5557	5.027493908655	3
0	5564	5.035997908655	2
0	5564	5.035997908655	3
0	5572	5.044501908655	2
0	5582	5.046651584987	3
0	5594	5.055155584987	2
0	5594	5.055155584987	3
0	5602	5.063659584987	2
0	5602	5.063659584987	3
0	5619	5.072163584987	2
0	5619	5.072163584987	3
0	5628	5.080667584987	2
0	5628	5.080667584987	3
0	5641	5.089171584987	2
0	5641	5.089171584987	3
0	5654	5.097675584987	2
0	5654	5.097675584987	3
0	5668	5.106179584987	2
0	5668	5.106179584987	3
0	5685	5.114683584987	2
0	5685	5.114683584987	3
0	5694	5.123187584987	2
0	5694	5.123187584987	3
0	5707	5.131691584987	2
0	5707	5.131691584987	3
0	5724	5.140195584987	2
0	5724	5.140195584987	3
0	5733	5.148699584987	2
0	5733	5.148699584987	3
0	5742	5.157203584987	2
0	5752	5.160437370677	3
0	5756	5.168941370677	2
0	5766	5.191515284423	3
0	5778	5.200019284423	2
0	5778	5.200019284423	3
0	5790	5.208523284423	2
0	5790	5.208523284423	3
0	5799	5.217027284423	2
0	5799	5.217027284423	3
0	5812	5.225531284423	2
0	5812	5.225531284423	3
0	5821	5.234035284423	2
0	5832	5.271442763227	3
0	5835	5.279946763227	2
0	5846	5.313117031698	3
0	5849	5.321621031698	2
0	5859	5.341357048915	3
0	5866	5.349861048915	2
0	5866	5.349861048915	3
0	5874	5.358365048915	2
0	5886	5.403534900516	3
0	5897	5.412038900516	2
0	5897	5.412038900516	3
0	5905	5.420542900516	2
0	5905	5.420542900516	3
0	5914	5.429046900516	2
0	5925	5.444500763421	3
0	5932	5.453004763421	2
0	5932	5.453004763421	3
0	5940	5.461508763421	2
0	5949	5.461735790769	3
0	5957	5.470239790769	2
0	5957	5.470239790769	3
0	5970	5.478743790769	2
0	5970	5.478743790769	3
0	5979	5.487247790769	2
0	5991	5.503817316906	3
0	5998	5.512321316906	2
0	5998	5.512321316906	3
0	6014	5.520825316906	2
0	6014	5.520825316906	3
0	6023	5.529329316906	2
0	6023	5.529329316906	3
0	6036	5.537833316906	2
0	6036	5.537833316906	3
0	6053	5.546337316906	2
0	6053	5.546337316906	3
0	6070	5.554841316906	2
0	6070	5.554841316906	3
0	6079	5.563345316906	2
0	6079	5.563345316906	3
0	6088	5.571849316906	2
0	6088	5.571849316906	3
0	6105	5.580353316906	2
0	6105	5.580353316906	3
0	6118	5.588857316906	2
0	6118	5.588857316906	3
0	6127	5.597361316906	2
0	6127	5.597361316906	3
0	6137	5.605865316906	2
0	6148	5.620445508973	3
0	6151	5.628949508973	2
0	6160	5.632506896756	3
0	6164	5.641010896756	2
0	6174	5.656741910795	3
0	6177	5.665245910795	2
0	6187	5.690544851555	3
0	6190	5.699048851555	2
0	6200	5.707217153638	3
0	6204	5.715721153638	2
0	6213	5.721647841775	3
0	6217	5.730151841775	2
0	6227	5.762939170346	3
0	6230	5.771443170346	2
0	6241	5.825160723422	3
0	6252	5.833664723422	2
0	6252	5.833664723422	3
0	6268	5.842168723422	2
0	6268	5.842168723422	3
0	6285	5.850672723422	2
0	6285	5.850672723422	3
0	6298	5.859176723422	2
0	6298	5.859176723422	3
0	6311	5.867680723422	2
0	6311	5.867680723422	3
0	6320	5.876184723422	2
0	6320	5.876184723422	3
0	6329	5.884688723422	2
0	6329	5.884688723422	3
0	6342	5.893192723422	2
0	6342	5.893192723422	3
0	6352	5.901696723422	2
0	6352	5.901696723422	3
0	6361	5.910200723422	2
0	6372	5.932798914007	3
0	6375	5.941302914007	2
0	6384	5.942298223142	3
0	6391	5.950802223142	2
0	6391	5.950802223142	3
0	6404	5.959306223142	2
0	6404	5.959306223142	3
0	6413	5.967810223142	2
0	6424	5.984167464234	3
0	6431	5.992671464234	2
0	6431	5.992671464234	3
0	6444	6.001175464234	2
0	6444	6.001175464234	3
0	6457	6.009679464234	2
0	6457	6.009679464234	3
0	6474	6.018183464234	2
0	6474	6.018183464234	3
0	6487	6.026687464234	2
0	6487	6.026687464234	3
0	6504	6.035191464234	2
0	6504	6.035191464234	3
0	6517	6.043695464234	2
0	6517	6.043695464234	3
0	6530	6.052199464234	2
0	6530	6.052199464234	3
0	6539	6.060703464234	2
0	6539	6.060703464234	3
0	6552	6.069207464234	2
0	6552	6.069207464234	3
0	6565	6.077711464234	2
0	6565	6.077711464234	3
0	6574	6.086215464234	2
0	6574	6.086215464234	3
0	6583	6.094719464234	2
0	6594	6.100694534439	3
0	6598	6.109198534439	2
0	6608	6.124488285402	3
0	6619	6.132992285402	2
0	6619	6.132992285402	3
0	6635	6.141496285402	2
0	6635	6.141496285402	3
0	6648	6.150000285402	2
0	6648	6.150000285402	3
0	6661	6.158504285402	2
0	6661	6.158504285402	3
0	6670	6.167008285402	2
0	6670	6.167008285402	3
0	6683	6.175512285402	2
0	6683	6.175512285402	3
0	6696	6.184016285402	2
0	6696	6.184016285402	3
0	6705	6.192520285402	2
0	6705	6.192520285402	3
0	6719	6.201024285402	2
0	6719	6.201024285402	3
0	6736	6.209528285402	2
0	6736	6.209528285402	3
0	6745	6.218032285402	2
0	6745	6.218032285402	3
0	6758	6.226536285402	2
0	6758	6.226536285402	3
0	6767	6.235040285402	2
0	6778	6.24524912426	3
0	6781	6.25375312426	2
0	6790	6.254663804623	3
0	6801	6.263167804623	2
0	6801	6.263167804623	3
0	6810	6.271671804623	2
0	6810	6.271671804623	3
0	6831	6.280175804623	2
0	6831	6.280175804623	3
0	6844	6.288679804623	2
0	6844	6.288679804623	3
0	6853	6.297183804623	2
0	6853	6.297183804623	3
0	6863	6.305687804623	2
0	6863	6.305687804623	3
0	6872	6.314191804623	2
0	6882	6.319282052842	3
0	6898	6.327786052842	2
0	6898	6.327786052842	3
0	6910	6.336290052842	2
0	6910	6.336290052842	3
0	6923	6.344794052842	2
0	6923	6.344794052842	3
0	6944	6.353298052842	2
0	6944	6.353298052842	3
0	6953	6.361802052842	2
0	6953	6.361802052842	3
0	6966	6.370306052842	2
0	6966	6.370306052842	3
0	6979	6.378810052842	2
0	6979	6.378810052842	3
0	6988	6.387314052842	2
0	6988	6.387314052842	3
0	7001	6.395818052842	2
0	7001	6.395818052842	3
0	7011	6.404322052842	2
0	7011	6.404322052842	3
0	7020	6.412826052842	2
0	7020	6.412826052842	3
0	7029	6.421330052842	2
0	7039	6.425536554306	3
0	7047	6.434040554306	2
0	7047	6.434040554306	3
0	7059	6.442544554306	2
0	7059	6.442544554306	3
0	7072	6.451048554306	2
0	7072	6.451048554306	3
0	7081	6.459552554306	2
0	7090	6.45974077649	3
0	7094	6.46824477649	2
0	7105	6.499228562453	3
0	7113	6.507732562453	2
0	7113	6.507732562453	3
0	7125	6.516236562453	2
0	7125	6.516236562453	3
0	7134	6.524740562453	2
0	7144	6.53390392803	3
0	7148	6.54240792803	2
0	7157	6.54245940578	3
0	7164	6.55096340578	2
0	7164	6.55096340578	3
0	7173	6.55946740578	2
0	7183	6.566112238789	3
0	7195	6.574616238789	2
0	7195	6.574616238789	3
0	7203	6.583120238789	2
0	7203	6.583120238789	3
0	7216	6.591624238789	2
0	7216	6.591624238789	3
0	7234	6.600128238789	2
0	7234	6.600128238789	3
0	7251	6.608632238789	2
0	7251	6.608632238789	3
0	7260	6.617136238789	2
0	7260	6.617136238789	3
0	7273	6.625640238789	2
0	7273	6.625640238789	3
0	7282	6.634144238789	2
0	7282	6.634144238789	3
0	7291	6.642648238789	2
0	7301	6.645814556979	3
0	7305	6.654318556979	2
0	7314	6.65738855412	3
0	7322	6.66589255412	2
0	7322	6.66589255412	3
0	7330	6.67439655412	2
0	7342	6.706405042781	3
0	7345	6.714909042781	2
0	7355	6.731053672587	3
0	7362	6.739557672587	2
0	7362	6.739557672587	3
0	7370	6.748061672587	2
0	7381	6.77010312799	3
0	7384	6.77860712799	2
0	7393	6.779457548336	3
0	7396	6.787961548336	2
0	7408	6.81027273988	3
0	7411	6.81877673988	2
0	7421	6.831528979712	3
0	7424	6.840032979712	2
0	7434	6.872941101264	3
0	7437	6.881445101264	2
0	7448	6.9032173108	3
0	7459	6.9117213108	2
0	7459	6.9117213108	3
0	7471	6.9202253108	2
0	7471	6.9202253108	3
0	7480	6.9287293108	2
0	7480	6.9287293108	3
0	7489	6.9372333108	2
0	7500	6.948351770859	3
0	7511	6.956855770859	2
0	7511	6.956855770859	3
0	7519	6.965359770859	2
0	7519	6.965359770859	3
0	7528	6.973863770859	2
0	7538	6.980822083898	3
0	7546	6.989326083898	2
0	7546	6.989326083898	3
0	7554	6.997830083898	2
0	7566	7.016533101444	3
0	7573	7.025037101444	2
0	7573	7.025037101444	3
0	7585	7.033541101444	2
0	7585	7.033541101444	3
0	7602	7.042045101444	2
0	7602	7.042045101444	3
0	7611	7.050549101444	2
0	7611	7.050549101444	3
0	7636	7.059053101444	2
0	7636	7.059053101444	3
0	7649	7.067557101444	2
0	7649	7.067557101444	3
0	7658	7.076061101444	2
0	7658	7.076061101444	3
0	7667	7.084565101444	2
0	7667	7.084565101444	3
0	7680	7.093069101444	2
0	7680	7.093069101444	3
0	7690	7.101573101444	2
0	7690	7.101573101444	3
0	7703	7.110077101444	2
0	7703	7.110077101444	3
0	7712	7.118581101444	2
0	7723	7.13139004756	3
0	7726	7.13989404756	2
0	7735	7.144788270443	3
0	7739	7.153292270443	2
0	7748	7.153821506267	3
0	7755	7.162325506267	2
0	7755	7.162325506267	3
0	7764	7.170829506267	2
0	7776	7.232528993545	3
0	7783	7.241032993545	2
0	7783	7.241032993545	3
0	7795	7.249536993545	2
0	7795	7.249536993545	3
0	7808	7.258040993545	2
0	7808	7.258040993545	3
0	7817	7.266544993545	2
0	7828	7.29792504535	3
0	7840	7.30642904535	2
0	7840	7.30642904535	3
0	7848	7.31493304535	2
0	7848	7.31493304535	3
0	7865	7.32343704535	2
0	7865	7.32343704535	3
0	7878	7.33194104535	2
0	7878	7.33194104535	3
0	7891	7.34044504535	2
0	7891	7.34044504535	3
0	7908	7.34894904535	2
0	7908	7.34894904535	3
0	7921	7.35745304535	2
0	7921	7.35745304535	3
0	7934	7.36595704535	2
0	7934	7.36595704535	3
0	7951	7.37446104535	2
0	7951	7.37446104535	3
0	7960	7.38296504535	2
0	7960	7.38296504535	3
0	7969	7.39146904535	2
0	7969	7.39146904535	3
0	7978	7.39997304535	2
0	7978	7.39997304535	3
0	7988	7.40847704535	2
0	7998	7.414464726996	3
0	8014	7.422968726996	2
0	8014	7.422968726996	3
0	8022	7.431472726996	2
0	8022	7.431472726996	3
0	8035	7.439976726996	2
0	8035	7.439976726996	3
0	8048	7.448480726996	2
0	8048	7.448480726996	3
0	8061	7.456984726996	2
0	8061	7.456984726996	3
0	8070	7.465488726996	2
0	8070	7.465488726996	3
0	8079	7.473992726996	2
0	8091	7.538975951237	3
0	8098	7.547479951237	2
0	8098	7.547479951237	3
0	8106	7.555983951237	2
0	8116	7.559516370432	3
0	8120	7.568020370432	2
0	8129	7.571695877932	3
0	8133	7.580199877932	2
0	8143	7.591819094728	3
0	8147	7.600323094728	2
0	8157	7.636688876464	3
0	8160	7.645192876464	2
0	8170	7.66315368611	3
0	8173	7.67165768611	2
0	8182	7.680509376976	3
0	8186	7.689013376976	2
0	8195	7.69488719363	3
0	8212	7.70339119363	2
0	8212	7.70339119363	3
0	8224	7.71189519363	2
0	8224	7.71189519363	3
0	8237	7.72039919363	2
0	8237	7.72039919363	3
0	8250	7.72890319363	2
0	8250	7.72890319363	3
0	8259	7.73740719363	2
0	8259	7.73740719363	3
0	8272	7.74591119363	2
0	8272	7.74591119363	3
0	8281	7.75441519363	2
0	8281	7.75441519363	3
0	8290	7.76291919363	2
0	8301	7.777512799306	3
0	8312	7.786016799306	2
0	8312	7.786016799306	3
0	8324	7.794520799306	2
0	8324	7.794520799306	3
0	8334	7.803024799306	2
0	8334	7.803024799306	3
0	8347	7.811528799306	2
0	8347	7.811528799306	3
0	8356	7.820032799306	2
0	8367	7.830093665652	3
0	8370	7.838597665652	2
0	8380	7.863048688095	3
0	8383	7.871552688095	2
0	8394	7.912247899607	3
0	8401	7.920751899607	2
0	8401	7.920751899607	3
0	8417	7.929255899607	2
0	8417	7.929255899607	3
0	8426	7.937759899607	2
0	8426	7.937759899607	3
0	8439	7.946263899607	2
0	8439	7.946263899607	3
0	8452	7.954767899607	2
0	8452	7.954767899607	3
0	8461	7.963271899607	2
0	8472	7.976499221628	3
0	8479	7.985003221628	2
0	8479	7.985003221628	3
0	8491	7.993507221628	2
0	8491	7.993507221628	3
0	8513	8.002011221628	2
0	8513	8.002011221628	3
0	8522	8.010515221628	2
0	8522	8.010515221628	3
0	8531	8.019019221628	2
0	8531	8.019019221628	3
0	8548	8.027523221628	2
0	8548	8.027523221628	3
0	8565	8.036027221628	2
0	8565	8.036027221628	3
0	8578	8.044531221628	2
0	8578	8.044531221628	3
0	8587	8.053035221628	2
0	8587	8.053035221628	3
0	8596	8.061539221628	2
0	8596	8.061539221628	3
0	8605	8.070043221628	2
0	8616	8.089614223491	3
0	8623	8.098118223491	2
0	8623	8.098118223491	3
0	8632	8.106622223491	2
0	8643	8.119577293878	3
0	8654	8.128081293878	2
0	8654	8.128081293878	3
0	8666	8.136585293878	2
0	8666	8.136585293878	3
0	8679	8.145089293878	2
0	8679	8.145089293878	3
0	8692	8.153593293878	2
0	8692	8.153593293878	3
0	8705	8.162097293878	2
0	8705	8.162097293878	3
0	8714	8.170601293878	2
0	8714	8.170601293878	3
0	8727	8.179105293878	2
0	8727	8.179105293878	3
0	8740	8.187609293878	2
0	8740	8.187609293878	3
0	8757	8.196113293878	2
0	8757	8.196113293878	3
0	8767	8.204617293878	2
0	8767	8.204617293878	3
0	8784	8.213121293878	2
0	8784	8.213121293878	3
0	8793	8.221625293878	2
0	8793	8.221625293878	3
0	8806	8.230129293878	2
0	8806	8.230129293878	3
0	8815	8.238633293878	2
0	8825	8.241536153665	3
0	8829	8.250040153665	2
0	8838	8.257086687463	3
0	8842	8.265590687463	2
0	8851	8.266325030693	3
0	8862	8.274829030693	2
0	8862	8.274829030693	3
0	8875	8.283333030693	2
0	8875	8.283333030693	3
0	8892	8.291837030693	2
0	8892	8.291837030693	3
0	8902	8.300341030693	2
0	8902	8.300341030693	3
0	8919	8.308845030693	2
0	8919	8.308845030693	3
0	8932	8.317349030693	2
0	8932	8.317349030693	3
0	8941	8.325853030693	2
0	8941	8.325853030693	3
0	8954	8.334357030693	2
0	8954	8.334357030693	3
0	8967	8.342861030693	2
0	8967	8.342861030693	3
0	8976	8.351365030693	2
0	8976	8.351365030693	3
0	8985	8.359869030693	2
0	8996	8.378866852484	3
0	9003	8.387370852484	2
0	9003	8.387370852484	3
0	9011	8.395874852484	2
0	9022	8.404399199966	3
0	9030	8.412903199966	2
0	9030	8.412903199966	3
0	9046	8.421407199966	2
0	9046	8.421407199966	3
0	9059	8.429911199966	2
0	9059	8.429911199966	3
0	9080	8.438415199966	2
0	9080	8.438415199966	3
0	9093	8.446919199966	2
0	9093	8.446919199966	3
0	9102	8.455423199966	2
0	9102	8.455423199966	3
0	9111	8.463927199966	2
0	9111	8.463927199966	3
0	9124	8.472431199966	2
0	9124	8.472431199966	3
0	9149	8.480935199966	2
0	9149	8.480935199966	3
0	9178	8.489439199966	2
0	9178	8.489439199966	3
0	9187	8.497943199966	2
0	9187	8.497943199966	3
0	9197	8.506447199966	2
0	9197	8.506447199966	3
0	9214	8.514951199966	2
0	9214	8.514951199966	3
0	9223	8.523455199966	2
0	9223	8.523455199966	3
0	9236	8.531959199966	2
0	9236	8.531959199966	3
0	9245	8.540463199966	2
0	9245	8.540463199966	3
0	9262	8.548967199966	2
0	9262	8.548967199966	3
0	9279	8.557471199966	2
0	9279	8.557471199966	3
0	9292	8.565975199966	2
0	9292	8.565975199966	3
0	9305	8.574479199966	2
0	9305	8.574479199966	3
0	9318	8.582983199966	2
0	9318	8.582983199966	3
0	9327	8.591487199966	2
0	9327	8.591487199966	3
0	9340	8.599991199966	2
0	9340	8.599991199966	3
0	9350	8.608495199966	2
0	9350	8.608495199966	3
0	9363	8.616999199966	2
0	9363	8.616999199966	3
0	9372	8.625503199966	2
0	9372	8.625503199966	3
0	9381	8.634007199966	2
0	9381	8.634007199966	3
0	9398	8.642511199966	2
0	9398	8.642511199966	3
0	9407	8.651015199966	2
0	9407	8.651015199966	3
0	9416	8.659519199966	2
0	9416	8.659519199966	3
0	9425	8.668023199966	2
0	9425	8.668023199966	3
0	9442	8.676527199966	2
0	9442	8.676527199966	3
0	9451	8.685031199966	2
0	9451	8.685031199966	3
0	9460	8.693535199966	2
0	9460	8.693535199966	3
0	9474	8.702039199966	2
0	9474	8.702039199966	3
0	9483	8.710543199966	2
0	9493	8.713791191598	3
0	9497	8.722295191598	2
0	9507	8.766231188615	3
0	9510	8.774735188615	2
0	9515	8.783320760803	3
0	9523	8.791824760803	2
0	9523	8.791824760803	3
0	9532	8.800328760803	2
0	9532	8.800328760803	3
0	9545	8.808832760803	2
0	9545	8.808832760803	3
0	9554	8.817336760803	2
0	9554	8.817336760803	3
0	9563	8.825840760803	2
0	9563	8.825840760803	3
0	9572	8.834344760803	2
0	9572	8.834344760803	3
0	9581	8.842848760803	2
0	9581	8.842848760803	3
0	9602	8.851352760803	2
0	9602	8.851352760803	3
0	9607	8.859856760803	2
0	9607	8.859856760803	3
0	9612	8.868360760803	2
0	9612	8.868360760803	3
0	9617	8.876864760803	2
0	9617	8.876864760803	3
0	9622	8.885368760803	2
0	9622	8.885368760803	3
0	9635	8.893872760803	2
0	9635	8.893872760803	3
0	9645	8.902376760803	2
0	9645	8.902376760803	3
0	9658	8.910880760803	2
0	9658	8.910880760803	3
0	9663	8.919384760803	2
0	9663	8.919384760803	3
0	9668	8.927888760803	2
0	9668	8.927888760803	3
0	9677	8.936392760803	2
0	9677	8.936392760803	3
0	9682	8.944896760803	2
0	9688	8.948868625561	3
0	9692	8.957372625561	2
0	9698	8.989583794137	3
0	9705	8.998087794137	2
0	9705	8.998087794137	3
0	9714	9.006591794137	2
0	9714	9.006591794137	3
0	9723	9.015095794137	2
0	9723	9.015095794137	3
0	9728	9.023599794137	2
0	9735	9.043994329977	3
0	9738	9.052498329977	2
0	9743	9.052821011036	3
0	9750	9.061325011036	2
0	9750	9.061325011036	3
0	9755	9.069829011036	2
0	9762	9.081737536936	3
0	9773	9.090241536936	2
0	9773	9.090241536936	3
0	9785	9.098745536936	2
0	9785	9.098745536936	3
0	9791	9.107249536936	2
0	9791	9.107249536936	3
0	9796	9.115753536936	2
0	9796	9.115753536936	3
0	9805	9.124257536936	2
0	9805	9.124257536936	3
0	9814	9.132761536936	2
0	9814	9.132761536936	3
0	9827	9.141265536936	2
0	9827	9.141265536936	3
0	9832	9.149769536936	2
0	9832	9.149769536936	3
0	9837	9.158273536936	2
0	9843	9.163680452625	3
0	9847	9.172184452625	2
0	9853	9.198491361119	3
0	9857	9.206995361119	2
0	9863	9.256267737116	3
0	9870	9.264771737116	2
0	9870	9.264771737116	3
0	9874	9.273275737116	2
0	9882	9.302570150488	3
0	9885	9.311074150488	2
0	9891	9.321405810743	3
0	9894	9.329909810743	2
0	9899	9.334918444315	3
0	9915	9.343422444315	2
0	9915	9.343422444315	3
0	9919	9.351926444315	2
0	9919	9.351926444315	3
0	9924	9.360430444315	2
0	9924	9.360430444315	3
0	9929	9.368934444315	2
0	9935	9.374124771808	3
0	9943	9.382628771808	2
0	9943	9.382628771808	3
0	9951	9.391132771808	2
0	9951	9.391132771808	3
0	9960	9.399636771808	2
0	9960	9.399636771808	3
0	9966	9.408140771808	2
0	9972	9.411789337981	3
0	9976	9.420293337981	2
0	9982	9.43410221685	3
0	9993	9.44260621685	2
0	9993	9.44260621685	3
0	9997	9.45111021685	2
0	9997	9.45111021685	3
0	10002	9.45961421685	2
0	10008	9.464786619077	3
0	10012	9.473290619077	2
0	10018	9.48523379833	3
0	10033	9.49373779833	2
0	10033	9.49373779833	3
0	10050	9.50224179833	2
0	10050	9.50224179833	3
0	10055	9.51074579833	2
0	10055	9.51074579833	3
0	10068	9.51924979833	2
0	10068	9.51924979833	3
0	10081	9.52775379833	2
0	10081	9.52775379833	3
0	10086	9.53625779833	2
0	10086	9.53625779833	3
0	10091	9.54476179833	2
0	10091	9.54476179833	3
0	10096	9.55326579833	2
0	10096	9.55326579833	3
0	10101	9.56176979833	2
0	10101	9.56176979833	3
0	10106	9.57027379833	2
0	10106	9.57027379833	3
0	10115	9.57877779833	2
0	10115	9.57877779833	3
0	10120	9.58728179833	2
0	10128	9.604784843661	3
0	10135	9.613288843661	2
0	10135	9.613288843661	3
0	10147	9.621792843661	2
0	10147	9.621792843661	3
0	10160	9.630296843661	2
0	10160	9.630296843661	3
0	10169	9.638800843661	2
0	10169	9.638800843661	3
0	10178	9.647304843661	2
0	10178	9.647304843661	3
0	10187	9.655808843661	2
0	10187	9.655808843661	3
0	10192	9.664312843661	2
0	10192	9.664312843661	3
0	10201	9.672816843661	2
0	10201	9.672816843661	3
0	10206	9.681320843661	2
0	10206	9.681320843661	3
0	10215	9.689824843661	2
0	10215	9.689824843661	3
0	10220	9.698328843661	2
0	10228	9.721927110054	3
0	10235	9.730431110054	2
0	10235	9.730431110054	3
0	10239	9.738935110054	2
0	10246	9.754472021242	3
0	10249	9.762976021242	2
0	10254	9.772106421032	3
0	10262	9.780610421032	2
0	10262	9.780610421032	3
0	10270	9.789114421032	2
0	10270	9.789114421032	3
0	10279	9.797618421032	2
0	10279	9.797618421032	3
0	10285	9.806122421032	2
0	10292	9.818058958904	3
0	10307	9.826562958904	2
0	10307	9.826562958904	3
0	10315	9.835066958904	2
0	10315	9.835066958904	3
0	10320	9.843570958904	2
0	10320	9.843570958904	3
0	10329	9.852074958904	2
0	10329	9.852074958904	3
0	10338	9.860578958904	2
0	10338	9.860578958904	3
0	10351	9.869082958904	2
0	10351	9.869082958904	3
0	10368	9.877586958904	2
0	10368	9.877586958904	3
0	10373	9.886090958904	2
0	10373	9.886090958904	3
0	10378	9.894594958904	2
0	10378	9.894594958904	3
0	10384	9.903098958904	2
0	10384	9.903098958904	3
0	10397	9.911602958904	2
0	10397	9.911602958904	3
0	10402	9.920106958904	2
0	10402	9.920106958904	3
0	10407	9.928610958904	2
0	10407	9.928610958904	3
0	10416	9.937114958904	2
0	10416	9.937114958904	3
0	10421	9.945618958904	2
0	10427	9.952813483804	3
0	10435	9.961317483804	2
0	10435	9.961317483804	3
0	10447	9.969821483804	2
0	10447	9.969821483804	3
0	10452	9.978325483804	2
0	10452	9.978325483804	3
0	10461	9.986829483804	2
0	10461	9.986829483804	3
0	10470	9.995333483804	2
0	10470	9.995333483804	3
0	10476	10.003837483804	2
0	10483	10.01538247145	3
0	10490	10.02388647145	2
0	10490	10.02388647145	3
0	10494	10.03239047145	2
0	10501	10.052777330447	3
0	10512	10.061281330447	2
0	10512	10.061281330447	3
0	10516	10.069785330447	2
0	10516	10.069785330447	3
0	10525	10.078289330447	2
0	10525	10.078289330447	3
0	10542	10.086793330447	2
0	10542	10.086793330447	3
0	10547	10.095297330447	2
0	10547	10.095297330447	3
0	10557	10.103801330447	2
0	10557	10.103801330447	3
0	10566	10.112305330447	2
0	10566	10.112305330447	3
0	10571	10.120809330447	2
0	10571	10.120809330447	3
0	10576	10.129313330447	2
0	10582	10.136511199092	3
0	10586	10.145015199092	2
0	10591	10.152370280366	3
0	10599	10.160874280366	2
0	10599	10.160874280366	3
0	10607	10.169378280366	2
0	10607	10.169378280366	3
0	10616	10.177882280366	2
0	10616	10.177882280366	3
0	10621	10.186386280366	2
0	10628	10.199392059481	3
0	10632	10.207896059481	2
0	10637	10.215431991946	3
0	10645	10.223935991946	2
0	10645	10.223935991946	3
0	10653	10.232439991946	2
0	10653	10.232439991946	3
0	10658	10.240943991946	2
0	10665	10.259945303094	3
0	10668	10.268449303094	2
0	10673	10.274818668999	3
0	10681	10.283322668999	2
0	10681	10.283322668999	3
0	10693	10.291826668999	2
0	10693	10.291826668999	3
0	10703	10.300330668999	2
0	10703	10.300330668999	3
0	10708	10.308834668999	2
0	10708	10.308834668999	3
0	10713	10.317338668999	2
0	10719	10.325433591871	3
0	10723	10.333937591871	2
0	10729	10.356248664508	3
0	10736	10.364752664508	2
0	10736	10.364752664508	3
0	10744	10.373256664508	2
0	10744	10.373256664508	3
0	10753	10.381760664508	2
0	10753	10.381760664508	3
0	10758	10.390264664508	2
0	10766	10.415845650437	3
0	10777	10.424349650437	2
0	10777	10.424349650437	3
0	10781	10.432853650437	2
0	10781	10.432853650437	3
0	10786	10.441357650437	2
0	10792	10.44614379017	3
0	10800	10.45464779017	2
0	10800	10.45464779017	3
0	10804	10.46315179017	2
0	10811	10.481775526228	3
0	10818	10.490279526228	2
0	10818	10.490279526228	3
0	10830	10.498783526228	2
0	10830	10.498783526228	3
0	10840	10.507287526228	2
0	10840	10.507287526228	3
0	10849	10.515791526228	2
0	10849	10.515791526228	3
0	10862	10.524295526228	2
0	10862	10.524295526228	3
0	10867	10.532799526228	2
0	10867	10.532799526228	3
0	10872	10.541303526228	2
0	10872	10.541303526228	3
0	10877	10.549807526228	2
0	10883	10.551472165921	3
0	10887	10.559976165921	2
0	10892	10.567261936702	3
0	10896	10.575765936702	2
0	10901	10.582865406406	3
0	10909	10.591369406406	2
0	10909	10.591369406406	3
0	10917	10.599873406406	2
0	10917	10.599873406406	3
0	10923	10.608377406406	2
0	10929	10.615443424712	3
0	10933	10.623947424712	2
0	10939	10.634494976163	3
0	10946	10.642998976163	2
0	10946	10.642998976163	3
0	10950	10.651502976163	2
0	10956	10.657245550876	3
0	10960	10.665749550876	2
0	10965	10.673222403081	3
0	10973	10.681726403081	2
0	10973	10.681726403081	3
0	10977	10.690230403081	2
0	10983	10.699167420259	3
0	10992	10.707671420259	2
0	10992	10.707671420259	3
0	11000	10.716175420259	2
0	11000	10.716175420259	3
0	11009	10.724679420259	2
0	11009	10.724679420259	3
0	11018	10.733183420259	2
0	11018	10.733183420259	3
0	11023	10.741687420259	2
0	11028	10.743003746849	3
0	11036	10.751507746849	2
0	11036	10.751507746849	3
0	11041	10.760011746849	2
0	11048	10.775467711484	3
0	11051	10.783971711484	2
0	11056	10.787325495322	3
0	11064	10.795829495322	2
0	11064	10.795829495322	3
0	11073	10.804333495322	2
0	11073	10.804333495322	3
0	11078	10.812837495322	2
0	11084	10.819934326728	3
0	11096	10.828438326728	2
0	11096	10.828438326728	3
0	11104	10.836942326728	2
0	11104	10.836942326728	3
0	11109	10.845446326728	2
0	11109	10.845446326728	3
0	11118	10.853950326728	2
0	11118	10.853950326728	3
0	11123	10.862454326728	2
0	11130	10.883800759415	3
0	11141	10.892304759415	2
0	11141	10.892304759415	3
0	11154	10.900808759415	2
0	11154	10.900808759415	3
0	11159	10.909312759415	2
0	11159	10.909312759415	3
0	11164	10.917816759415	2
0	11164	10.917816759415	3
0	11177	10.926320759415	2
0	11177	10.926320759415	3
0	11182	10.934824759415	2
0	11182	10.934824759415	3
0	11187	10.943328759415	2
0	11194	10.969571621382	3
0	11201	10.978075621382	2
0	11201	10.978075621382	3
0	11205	10.986579621382	2
0	11211	10.994683306469	3
0	11216	11.003187306469	2
0	11221	11.004713837279	3
0	11229	11.013217837279	2
0	11229	11.013217837279	3
0	11237	11.021721837279	2
0	11237	11.021721837279	3
0	11242	11.030225837279	2
0	11248	11.032241832784	3
0	11256	11.040745832784	2
0	11256	11.040745832784	3
0	11260	11.049249832784	2
0	11265	11.049625857806	3
0	11269	11.058129857806	2
0	11274	11.058366825511	3
0	11282	11.066870825511	2
0	11282	11.066870825511	3
0	11287	11.075374825511	2
0	11294	11.094100384513	3
0	11298	11.102604384513	2
0	11303	11.103806988776	3
0	11306	11.112310988776	2
0	11313	11.124850956984	3
0	11316	11.133354956984	2
0	11321	11.140367820239	3
0	11329	11.148871820239	2
0	11329	11.148871820239	3
0	11333	11.157375820239	2
0	11338	11.158639145618	3
0	11346	11.167143145618	2
0	11346	11.167143145618	3
0	11351	11.175647145618	2
0	11358	11.189587686994	3
0	11373	11.198091686994	2
0	11373	11.198091686994	3
0	11382	11.206595686994	2
0	11382	11.206595686994	3
0	11387	11.215099686994	2
0	11387	11.215099686994	3
0	11392	11.223603686994	2
0	11392	11.223603686994	3
0	11409	11.232107686994	2
0	11409	11.232107686994	3
0	11418	11.240611686994	2
0	11418	11.240611686994	3
0	11423	11.249115686994	2
0	11423	11.249115686994	3
0	11436	11.257619686994	2
0	11436	11.257619686994	3
0	11449	11.266123686994	2
0	11449	11.266123686994	3
0	11454	11.274627686994	2
0	11454	11.274627686994	3
0	11467	11.283131686994	2
0	11467	11.283131686994	3
0	11476	11.291635686994	2
0	11476	11.291635686994	3
0	11482	11.300139686994	2
0	11482	11.300139686994	3
0	11495	11.308643686994	2
0	11495	11.308643686994	3
0	11500	11.317147686994	2
0	11500	11.317147686994	3
0	11509	11.325651686994	2
0	11509	11.325651686994	3
0	11514	11.334155686994	2
0	11514	11.334155686994	3
0	11519	11.342659686994	2
0	11519	11.342659686994	3
0	11532	11.351163686994	2
0	11532	11.351163686994	3
0	11537	11.359667686994	2
0	11537	11.359667686994	3
0	11542	11.368171686994	2
0	11549	11.389370622169	3
0	11560	11.397874622169	2
0	11560	11.397874622169	3
0	11573	11.406378622169	2
0	11573	11.406378622169	3
0	11582	11.414882622169	2
0	11582	11.414882622169	3
0	11591	11.423386622169	2
0	11591	11.423386622169	3
0	11596	11.431890622169	2
0	11596	11.431890622169	3
0	11601	11.440394622169	2
0	11601	11.440394622169	3
0	11610	11.448898622169	2
0	11610	11.448898622169	3
0	11615	11.457402622169	2
0	11622	11.469281165422	3
0	11629	11.477785165422	2
0	11629	11.477785165422	3
0	11641	11.486289165422	2
0	11641	11.486289165422	3
0	11650	11.494793165422	2
0	11650	11.494793165422	3
0	11664	11.503297165422	2
0	11664	11.503297165422	3
0	11673	11.511801165422	2
0	11673	11.511801165422	3
0	11678	11.520305165422	2
0	11678	11.520305165422	3
0	11691	11.528809165422	2
0	11691	11.528809165422	3
0	11696	11.537313165422	2
0	11696	11.537313165422	3
0	11701	11.545817165422	2
0	11701	11.545817165422	3
0	11710	11.554321165422	2
0	11710	11.554321165422	3
0	11715	11.562825165422	2
0	11721	11.567752769304	3
0	11729	11.576256769304	2
0	11729	11.576256769304	3
0	11733	11.584760769304	2
0	11741	11.603677334271	3
0	11748	11.612181334271	2
0	11748	11.612181334271	3
0	11752	11.620685334271	2
0	11760	11.714879777324	3
0	11767	11.723383777324	2
0	11767	11.723383777324	3
0	11779	11.731887777324	2
0	11779	11.731887777324	3
0	11788	11.740391777324	2
0	11788	11.740391777324	3
0	11797	11.748895777324	2
0	11797	11.748895777324	3
0	11802	11.757399777324	2
0	11802	11.757399777324	3
0	11807	11.765903777324	2
0	11814	11.776468459716	3
0	11817	11.784972459716	2
0	11823	11.796101776603	3
0	11827	11.804605776603	2
0	11832	11.811547481873	3
0	11836	11.820051481873	2
0	11841	11.821376736394	3
0	11844	11.829880736394	2
0	11851	11.852035305871	3
0	11858	11.860539305871	2
0	11858	11.860539305871	3
0	11862	11.869043305871	2
0	11869	11.88501284019	3
0	11872	11.89351684019	2
0	11879	11.906560723456	3
0	11886	11.915064723456	2
0	11886	11.915064723456	3
0	11890	11.923568723456	2
0	11896	11.927148011564	3
0	11912	11.935652011564	2
0	11912	11.935652011564	3
0	11920	11.944156011564	2
0	11920	11.944156011564	3
0	11925	11.952660011564	2
0	11925	11.952660011564	3
0	11938	11.961164011564	2
0	11938	11.961164011564	3
0	11947	11.969668011564	2
0	11947	11.969668011564	3
0	11952	11.978172011564	2
0	11952	11.978172011564	3
0	11957	11.986676011564	2
0	11957	11.986676011564	3
0	11962	11.995180011564	2
0	11969	12.002968921421	3
0	11977	12.011472921421	2
0	11977	12.011472921421	3
0	11985	12.019976921421	2
0	11985	12.019976921421	3
0	11990	12.028480921421	2
0	11996	12.030434480195	3
0	12008	12.038938480195	2
0	12008	12.038938480195	3
0	12012	12.047442480195	2
0	12012	12.047442480195	3
0	12025	12.055946480195	2
0	12025	12.055946480195	3
0	12030	12.064450480195	2
0	12030	12.064450480195	3
0	12035	12.072954480195	2
0	12041	12.079045825267	3
0	12045	12.087549825267	2
0	12050	12.087855491063	3
0	12061	12.096359491063	2
0	12061	12.096359491063	3
0	12067	12.104863491063	2
0	12067	12.104863491063	3
0	12072	12.113367491063	2
0	12079	12.128143876901	3
0	12082	12.136647876901	2
0	12087	12.138620345522	3
0	12099	12.147124345522	2
0	12099	12.147124345522	3
0	12111	12.155628345522	2
0	12111	12.155628345522	3
0	12120	12.164132345522	2
0	12120	12.164132345522	3
0	12133	12.172636345522	2
0	12133	12.172636345522	3
0	12142	12.181140345522	2
0	12142	12.181140345522	3
0	12147	12.189644345522	2
0	12147	12.189644345522	3
0	12156	12.198148345522	2
0	12156	12.198148345522	3
0	12166	12.206652345522	2
0	12166	12.206652345522	3
0	12175	12.215156345522	2
0	12175	12.215156345522	3
0	12180	12.223660345522	2
0	12180	12.223660345522	3
0	12189	12.232164345522	2
0	12189	12.232164345522	3
0	12194	12.240668345522	2
0	12194	12.240668345522	3
0	12199	12.249172345522	2
0	12206	12.259568446036	3
0	12209	12.268072446036	2
0	12214	12.277644317983	3
0	12218	12.286148317983	2
0	12225	12.300278103906	3
0	12232	12.308782103906	2
0	12232	12.308782103906	3
0	12240	12.317286103906	2
0	12240	12.317286103906	3
0	12245	12.325790103906	2
0	12252	12.376543888566	3
0	12259	12.385047888566	2
0	12259	12.385047888566	3
0	12271	12.393551888566	2
0	12271	12.393551888566	3
0	12277	12.402055888566	2
0	12277	12.402055888566	3
0	12282	12.410559888566	2
0	12289	12.421260925053	3
0	12292	12.429764925053	2
0	12298	12.461464106321	3
0	12301	12.469968106321	2
0	12306	12.476713539754	3
0	12314	12.485217539754	2
0	12314	12.485217539754	3
0	12330	12.493721539754	2
0	12330	12.493721539754	3
0	12344	12.502225539754	2
0	12344	12.502225539754	3
0	12353	12.510729539754	2
0	12353	12.510729539754	3
0	12362	12.519233539754	2
0	12362	12.519233539754	3
0	12367	12.527737539754	2
0	12367	12.527737539754	3
0	12380	12.536241539754	2
0	12380	12.536241539754	3
0	12389	12.544745539754	2
0	12389	12.544745539754	3
0	12398	12.553249539754	2
0	12398	12.553249539754	3
0	12403	12.561753539754	2
0	12403	12.561753539754	3
0	12408	12.570257539754	2
0	12408	12.570257539754	3
0	12417	12.578761539754	2
0	12417	12.578761539754	3
0	12426	12.587265539754	2
0	12426	12.587265539754	3
0	12431	12.595769539754	2
0	12431	12.595769539754	3
0	12437	12.604273539754	2
0	12444	12.625772679224	3
0	12455	12.634276679224	2
0	12455	12.634276679224	3
0	12467	12.642780679224	2
0	12467	12.642780679224	3
0	12472	12.651284679224	2
0	12472	12.651284679224	3
0	12477	12.659788679224	2
0	12477	12.659788679224	3
0	12490	12.668292679224	2
0	12490	12.668292679224	3
0	12499	12.676796679224	2
0	12499	12.676796679224	3
0	12504	12.685300679224	2
0	12504	12.685300679224	3
0	12513	12.693804679224	2
0	12513	12.693804679224	3
0	12519	12.702308679224	2
0	12524	12.703464023574	3
0	12528	12.711968023574	2
0	12534	12.713262759547	3
0	12537	12.721766759547	2
0	12543	12.727910006009	3
0	12559	12.736414006009	2
0	12559	12.736414006009	3
0	12575	12.744918006009	2
0	12575	12.744918006009	3
0	12580	12.753422006009	2
0	12580	12.753422006009	3
0	12585	12.761926006009	2
0	12585	12.761926006009	3
0	12590	12.770430006009	2
0	12590	12.770430006009	3
0	12595	12.778934006009	2
0	12595	12.778934006009	3
0	12604	12.787438006009	2
0	12604	12.787438006009	3
0	12609	12.795942006009	2
0	12617	12.808797854672	3
0	12628	12.817301854672	2
0	12628	12.817301854672	3
0	12632	12.825805854672	2
0	12632	12.825805854672	3
0	12637	12.834309854672	2
0	12644	12.844883920448	3
0	12655	12.853387920448	2
0	12655	12.853387920448	3
0	12659	12.861891920448	2
0	12659	12.861891920448	3
0	12672	12.870395920448	2
0	12672	12.870395920448	3
0	12681	12.878899920448	2
0	12681	12.878899920448	3
0	12686	12.887403920448	2
0	12686	12.887403920448	3
0	12691	12.895907920448	2
0	12699	12.914763452528	3
0	12702	12.923267452528	2
0	12707	12.927005373264	3
0	12711	12.935509373264	2
0	12716	12.935829960173	3
0	12723	12.944333960173	2
0	12723	12.944333960173	3
0	12728	12.952837960173	2
0	12734	12.959791584487	3
0	12742	12.968295584487	2
0	12742	12.968295584487	3
0	12746	12.976799584487	2
0	12754	13.002673267744	3
0	12757	13.011177267744	2
0	12763	13.026363268028	3
0	12766	13.034867268028	2
0	12771	13.037900513299	3
0	12779	13.046404513299	2
0	12779	13.046404513299	3
0	12787	13.054908513299	2
0	12787	13.054908513299	3
0	12792	13.063412513299	2
0	12799	13.082250158114	3
0	12802	13.090754158114	2
0	12807	13.091172763962	3
0	12818	13.099676763962	2
0	12818	13.099676763962	3
0	12824	13.108180763962	2
0	12824	13.108180763962	3
0	12833	13.116684763962	2
0	12833	13.116684763962	3
0	12838	13.125188763962	2
0	12845	13.140787473859	3
0	12852	13.149291473859	2
0	12852	13.149291473859	3
0	12856	13.157795473859	2
0	12861	13.159129888304	3
0	12869	13.167633888304	2
0	12869	13.167633888304	3
0	12874	13.176137888304	2
0	12882	13.200291339774	3
0	12885	13.208795339774	2
0	12890	13.211747291793	3
0	12894	13.220251291793	2
0	12899	13.221394602606	3
0	12906	13.229898602606	2
0	12906	13.229898602606	3
0	12911	13.238402602606	2
0	12918	13.257395773752	3
0	12925	13.265899773752	2
0	12925	13.265899773752	3
0	12929	13.274403773752	2
0	12935	13.282238548558	3
0	12939	13.290742548558	2
0	12946	13.332722268001	3
0	12949	13.341226268001	2
0	12954	13.351078517217	3
0	12958	13.359582517217	2
0	12963	13.359860921691	3
0	12974	13.368364921691	2
0	12974	13.368364921691	3
0	12983	13.376868921691	2
0	12983	13.376868921691	3
0	12996	13.385372921691	2
0	12996	13.385372921691	3
0	13009	13.393876921691	2
0	13009	13.393876921691	3
0	13019	13.402380921691	2
0	13019	13.402380921691	3
0	13028	13.410884921691	2
0	13028	13.410884921691	3
0	13041	13.419388921691	2
0	13041	13.419388921691	3
0	13046	13.427892921691	2
0	13046	13.427892921691	3
0	13051	13.436396921691	2
0	13051	13.436396921691	3
0	13060	13.444900921691	2
0	13060	13.444900921691	3
0	13065	13.453404921691	2
0	13065	13.453404921691	3
0	13074	13.461908921691	2
0	13074	13.461908921691	3
0	13083	13.470412921691	2
0	13083	13.470412921691	3
0	13088	13.478916921691	2
0	13088	13.478916921691	3
0	13093	13.487420921691	2
0	13099	13.493302162134	3
0	13104	13.501806162134	2
0	13110	13.532669604283	3
0	13117	13.541173604283	2
0	13117	13.541173604283	3
0	13125	13.549677604283	2
0	13125	13.549677604283	3
0	13130	13.558181604283	2
0	13138	13.620572462154	3
0	13141	13.629076462154	2
0	13147	13.673536323404	3
0	13150	13.682040323404	2
0	13155	13.684631918441	3
0	13163	13.693135918441	2
0	13163	13.693135918441	3
0	13180	13.701639918441	2
0	13180	13.701639918441	3
0	13185	13.710143918441	2
0	13185	13.710143918441	3
0	13190	13.718647918441	2
0	13190	13.718647918441	3
0	13195	13.727151918441	2
0	13201	13.736980003678	3
0	13209	13.745484003678	2
0	13209	13.745484003678	3
0	13213	13.753988003678	2
0	13218	13.753999899386	3
0	13226	13.762503899386	2
0	13226	13.762503899386	3
0	13231	13.771007899386	2
0	13238	13.793393387364	3
0	13242	13.801897387364	2
0	13247	13.80904150128	3
0	13255	13.81754550128	2
0	13255	13.81754550128	3
0	13259	13.82604950128	2
0	13265	13.832669835932	3
0	13277	13.841173835932	2
0	13277	13.841173835932	3
0	13285	13.849677835932	2
0	13285	13.849677835932	3
0	13298	13.858181835932	2
0	13298	13.858181835932	3
0	13307	13.866685835932	2
0	13307	13.866685835932	3
0	13316	13.875189835932	2
0	13316	13.875189835932	3
0	13329	13.883693835932	2
0	13329	13.883693835932	3
0	13334	13.892197835932	2
0	13334	13.892197835932	3
0	13348	13.900701835932	2
0	13348	13.900701835932	3
0	13357	13.909205835932	2
0	13357	13.909205835932	3
0	13370	13.917709835932	2
0	13370	13.917709835932	3
0	13375	13.926213835932	2
0	13375	13.926213835932	3
0	13380	13.934717835932	2
0	13380	13.934717835932	3
0	13389	13.943221835932	2
0	13389	13.943221835932	3
0	13394	13.951725835932	2
0	13394	13.951725835932	3
0	13399	13.960229835932	2
0	13399	13.960229835932	3
0	13404	13.968733835932	2
0	13410	13.972388614115	3
0	13418	13.980892614115	2
0	13418	13.980892614115	3
0	13422	13.989396614115	2
0	13428	13.9979959035	3
0	13437	14.0064999035	2
0	13437	14.0064999035	3
0	13445	14.0150039035	2
0	13445	14.0150039035	3
0	13450	14.0235079035	2
0	13456	14.028059606374	3
0	13464	14.036563606374	2
0	13464	14.036563606374	3
0	13472	14.045067606374	2
0	13472	14.045067606374	3
0	13477	14.053571606374	2
0	13483	14.063542407908	3
0	13495	14.072046407908	2
0	13495	14.072046407908	3
0	13503	14.080550407908	2
0	13503	14.080550407908	3
0	13512	14.089054407908	2
0	13512	14.089054407908	3
0	13517	14.097558407908	2
0	13517	14.097558407908	3
0	13527	14.106062407908	2
0	13527	14.106062407908	3
0	13532	14.114566407908	2
0	13539	14.132725928241	3
0	13546	14.141229928241	2
0	13546	14.141229928241	3
0	13554	14.149733928241	2
0	13554	14.149733928241	3
0	13563	14.158237928241	2
0	13563	14.158237928241	3
0	13572	14.166741928241	2
0	13572	14.166741928241	3
0	13577	14.175245928241	2
0	13585	14.211042529821	3
0	13588	14.219546529821	2
0	13593	14.225383885758	3
0	13601	14.233887885758	2
0	13601	14.233887885758	3
0	13609	14.242391885758	2
0	13609	14.242391885758	3
0	13614	14.250895885758	2
0	13621	14.269704757488	3
0	13628	14.278208757488	2
0	13628	14.278208757488	3
0	13632	14.286712757488	2
0	13637	14.286739664877	3
0	13641	14.295243664877	2
0	13649	14.317886242149	3
0	13652	14.326390242149	2
0	13657	14.330997766101	3
0	13665	14.339501766101	2
0	13665	14.339501766101	3
0	13677	14.348005766101	2
0	13677	14.348005766101	3
0	13682	14.356509766101	2
0	13682	14.356509766101	3
0	13691	14.365013766101	2
0	13691	14.365013766101	3
0	13700	14.373517766101	2
0	13700	14.373517766101	3
0	13705	14.382021766101	2
0	13713	14.404633630914	3
0	13716	14.413137630914	2
0	13722	14.428829961941	3
0	13725	14.437333961941	2
0	13731	14.449153631888	3
0	13734	14.457657631888	2
0	13740	14.478244004937	3
0	13747	14.486748004937	2
0	13747	14.486748004937	3
0	13759	14.495252004937	2
0	13759	14.495252004937	3
0	13769	14.503756004937	2
0	13769	14.503756004937	3
0	13774	14.512260004937	2
0	13774	14.512260004937	3
0	13787	14.520764004937	2
0	13787	14.520764004937	3
0	13800	14.529268004937	2
0	13800	14.529268004937	3
0	13809	14.537772004937	2
0	13809	14.537772004937	3
0	13814	14.546276004937	2
0	13814	14.546276004937	3
0	13819	14.554780004937	2
0	13819	14.554780004937	3
0	13824	14.563284004937	2
0	13830	14.565536240248	3
0	13834	14.574040240248	2
0	13840	14.591835748037	3
0	13844	14.600339748037	2
0	13850	14.615455761319	3
0	13853	14.623959761319	2
0	13858	14.62815691902	3
0	13866	14.63666091902	2
0	13866	14.63666091902	3
0	13874	14.64516491902	2
0	13874	14.64516491902	3
0	13879	14.65366891902	2
0	13885	14.663036188375	3
0	13893	14.671540188375	2
0	13893	14.671540188375	3
0	13897	14.680044188375	2
0	13903	14.683659921946	3
0	13911	14.692163921946	2
0	13911	14.692163921946	3
0	13916	14.700667921946	2
0	13922	14.704505866641	3
0	13926	14.713009866641	2
0	13932	14.724281754274	3
0	13939	14.732785754274	2
0	13939	14.732785754274	3
0	13947	14.741289754274	2
0	13947	14.741289754274	3
0	13964	14.749793754274	2
0	13964	14.749793754274	3
0	13969	14.758297754274	2
0	13969	14.758297754274	3
0	13974	14.766801754274	2
0	13974	14.766801754274	3
0	13983	14.775305754274	2
0	13983	14.775305754274	3
0	13992	14.783809754274	2
0	13992	14.783809754274	3
0	13997	14.792313754274	2
0	14005	14.826051481114	3
0	14008	14.834555481114	2
0	14014	14.874426418201	3
0	14017	14.882930418201	2
0	14024	14.933410852154	3
0	14031	14.941914852154	2
0	14031	14.941914852154	3
0	14035	14.950418852154	2
0	14042	14.968343115546	3
0	14049	14.976847115546	2
0	14049	14.976847115546	3
0	14057	14.985351115546	2
0	14057	14.985351115546	3
0	14062	14.993855115546	2
0	14068	14.996059718828	3
0	14077	15.004563718828	2
0	14077	15.004563718828	3
0	14093	15.013067718828	2
0	14093	15.013067718828	3
0	14110	15.021571718828	2
0	14110	15.021571718828	3
0	14119	15.030075718828	2
0	14119	15.030075718828	3
0	14124	15.038579718828	2
0	14124	15.038579718828	3
0	14141	15.047083718828	2
0	14141	15.047083718828	3
0	14158	15.055587718828	2
0	14158	15.055587718828	3
0	14163	15.064091718828	2
0	14163	15.064091718828	3
0	14168	15.072595718828	2
0	14168	15.072595718828	3
0	14173	15.081099718828	2
0	14173	15.081099718828	3
0	14178	15.089603718828	2
0	14178	15.089603718828	3
0	14191	15.098107718828	2
0	14191	15.098107718828	3
0	14197	15.106611718828	2
0	14197	15.106611718828	3
0	14202	15.115115718828	2
0	14202	15.115115718828	3
0	14211	15.123619718828	2
0	14211	15.123619718828	3
0	14220	15.132123718828	2
0	14220	15.132123718828	3
0	14229	15.140627718828	2
0	14229	15.140627718828	3
0	14238	15.149131718828	2
0	14238	15.149131718828	3
0	14243	15.157635718828	2
0	14243	15.157635718828	3
0	14248	15.166139718828	2
0	14248	15.166139718828	3
0	14253	15.174643718828	2
0	14260	15.187336962119	3
0	14267	15.195840962119	2
0	14267	15.195840962119	3
0	14272	15.204344962119	2
0	14278	15.211373974548	3
0	14282	15.219877974548	2
0	14287	15.221098080162	3
0	14294	15.229602080162	2
0	14294	15.229602080162	3
0	14299	15.238106080162	2
0	14306	15.264478986848	3
0	14309	15.272982986848	2
0	14314	15.275424060887	3
0	14326	15.283928060887	2
0	14326	15.283928060887	3
0	14330	15.292432060887	2
0	14330	15.292432060887	3
0	14336	15.300936060887	2
0	14341	15.301685342539	3
0	14345	15.310189342539	2
0	14351	15.3158854682	3
0	14355	15.3243894682	2
0	14361	15.345657447512	3
0	14368	15.354161447512	2
0	14368	15.354161447512	3
0	14372	15.362665447512	2
0	14378	15.366296036474	3
0	14386	15.374800036474	2
0	14386	15.374800036474	3
0	14390	15.383304036474	2
0	14395	15.38391630028	3
0	14399	15.39242030028	2
0	14407	15.42114186717	3
0	14410	15.42964586717	2
0	14416	15.467665394412	3
0	14419	15.476169394412	2
0	14425	15.49139589768	3
0	14432	15.49989989768	2
0	14432	15.49989989768	3
0	14437	15.50840389768	2
0	14444	15.522973491593	3
0	14447	15.531477491593	2
0	14452	15.535187035036	3
0	14464	15.543691035036	2
0	14464	15.543691035036	3
0	14468	15.552195035036	2
0	14468	15.552195035036	3
0	14477	15.560699035036	2
0	14477	15.560699035036	3
0	14486	15.569203035036	2
0	14486	15.569203035036	3
0	14491	15.577707035036	2
0	14497	15.586892290518	3
0	14501	15.595396290518	2
0	14507	15.603433290461	3
0	14511	15.611937290461	2
0	14517	15.622366664431	3
0	14524	15.630870664431	2
0	14524	15.630870664431	3
0	14528	15.639374664431	2
0	14534	15.646019198606	3
0	14538	15.654523198606	2
0	14543	15.655570565834	3
0	14550	15.664074565834	2
0	14550	15.664074565834	3
0	14555	15.672578565834	2
0	14561	15.676756463732	3
0	14577	15.685260463732	2
0	14577	15.685260463732	3
0	14581	15.693764463732	2
0	14581	15.693764463732	3
0	14587	15.702268463732	2
0	14587	15.702268463732	3
0	14592	15.710772463732	2
0	14599	15.731345067869	3
0	14614	15.739849067869	2
0	14614	15.739849067869	3
0	14626	15.748353067869	2
0	14626	15.748353067869	3
0	14631	15.756857067869	2
0	14631	15.756857067869	3
0	14636	15.765361067869	2
0	14636	15.765361067869	3
0	14641	15.773865067869	2
0	14641	15.773865067869	3
0	14646	15.782369067869	2
0	14651	15.783264808076	3
0	14655	15.791768808076	2
0	14663	15.805648705131	3
0	14674	15.814152705131	2
0	14674	15.814152705131	3
0	14678	15.822656705131	2
0	14678	15.822656705131	3
0	14683	15.831160705131	2
0	14689	15.833076215436	3
0	14693	15.841580215436	2
0	14698	15.846040869973	3
0	14706	15.854544869973	2
0	14706	15.854544869973	3
0	14710	15.863048869973	2
0	14718	15.91449779671	3
0	14725	15.92300179671	2
0	14725	15.92300179671	3
0	14729	15.93150579671	2
0	14735	15.939984448207	3
0	14743	15.948488448207	2
0	14743	15.948488448207	3
0	14751	15.956992448207	2
0	14751	15.956992448207	3
0	14756	15.965496448207	2
0	14762	15.970069014515	3
0	14766	15.978573014515	2
0	14771	15.983649151328	3
0	14775	15.992153151328	2
0	14782	16.016990380827	3
0	14785	16.025494380827	2
0	14790	16.028637453625	3
0	14798	16.037141453625	2
0	14798	16.037141453625	3
0	14802	16.045645453625	2
0	14809	16.055759935022	3
0	14812	16.064263935022	2
0	14817	16.073352068143	3
0	14821	16.081856068143	2
0	14826	16.088284209077	3
0	14838	16.096788209077	2
0	14838	16.096788209077	3
0	14847	16.105292209077	2
0	14847	16.105292209077	3
0	14852	16.113796209077	2
0	14852	16.113796209077	3
0	14861	16.122300209077	2
0	14861	16.122300209077	3
0	14866	16.130804209077	2
0	14872	16.132374542561	3
0	14876	16.140878542561	2
0	14882	16.158129479976	3
0	14885	16.166633479976	2
0	14891	16.198910932372	3
0	14895	16.207414932372	2
0	14900	16.216797337903	3
0	14904	16.225301337903	2
0	14910	16.27866475604	3
0	14913	16.28716875604	2
0	14918	16.29011172912	3
0	14934	16.29861572912	2
0	14934	16.29861572912	3
0	14939	16.30711972912	2
0	14939	16.30711972912	3
0	14944	16.31562372912	2
0	14944	16.31562372912	3
0	14953	16.32412772912	2
0	14953	16.32412772912	3
0	14958	16.33263172912	2
0	14964	16.34070485929	3
0	14968	16.34920885929	2
0	14974	16.379577636725	3
0	14985	16.388081636725	2
0	14985	16.388081636725	3
0	14989	16.396585636725	2
0	14989	16.396585636725	3
0	14995	16.405089636725	2
0	15001	16.410274186427	3
0	15009	16.418778186427	2
0	15009	16.418778186427	3
0	15017	16.427282186427	2
0	15017	16.427282186427	3
0	15022	16.435786186427	2
0	15029	16.47294703395	3
0	15036	16.48145103395	2
0	15036	16.48145103395	3
0	15040	16.48995503395	2
0	15046	16.492240667303	3
0	15055	16.500744667303	2
0	15055	16.500744667303	3
0	15059	16.509248667303	2
0	15065	16.515930466867	3
0	15069	16.524434466867	2
0	15074	16.524932531916	3
0	15085	16.533436531916	2
0	15085	16.533436531916	3
0	15094	16.541940531916	2
0	15094	16.541940531916	3
0	15103	16.550444531916	2
0	15103	16.550444531916	3
0	15108	16.558948531916	2
0	15108	16.558948531916	3
0	15117	16.567452531916	2
0	15117	16.567452531916	3
0	15122	16.575956531916	2
0	15129	16.59503935213	3
0	15133	16.60354335213	2
0	15138	16.609252821322	3
0	15142	16.617756821322	2
0	15147	16.627487595274	3
0	15159	16.635991595274	2
0	15159	16.635991595274	3
0	15167	16.644495595274	2
0	15167	16.644495595274	3
0	15172	16.652999595274	2
0	15172	16.652999595274	3
0	15185	16.661503595274	2
0	15185	16.661503595274	3
0	15198	16.670007595274	2
0	15198	16.670007595274	3
0	15203	16.678511595274	2
0	15203	16.678511595274	3
0	15208	16.687015595274	2
0	15208	16.687015595274	3
0	15217	16.695519595274	2
0	15217	16.695519595274	3
0	15235	16.704023595274	2
0	15235	16.704023595274	3
0	15244	16.712527595274	2
0	15244	16.712527595274	3
0	15249	16.721031595274	2
0	15249	16.721031595274	3
0	15258	16.729535595274	2
0	15258	16.729535595274	3
0	15263	16.738039595274	2
0	15263	16.738039595274	3
0	15272	16.746543595274	2
0	15272	16.746543595274	3
0	15281	16.755047595274	2
0	15281	16.755047595274	3
0	15286	16.763551595274	2
0	15292	16.770979525943	3
0	15300	16.779483525943	2
0	15300	16.779483525943	3
0	15308	16.787987525943	2
0	15308	16.787987525943	3
0	15317	16.796491525943	2
0	15317	16.796491525943	3
0	15323	16.804995525943	2
0	15329	16.810131126008	3
0	15333	16.818635126008	2
0	15339	16.847853721011	3
0	15346	16.856357721011	2
0	15346	16.856357721011	3
0	15350	16.864861721011	2
0	15356	16.870679093127	3
0	15360	16.879183093127	2
0	15365	16.883623769676	3
0	15369	16.892127769676	2
0	15374	16.894040574736	3
0	15379	16.902544574736	2
0	15384	16.91193402333	3
0	15388	16.92043802333	2
0	15394	16.946529824366	3
0	15405	16.955033824366	2
0	15405	16.955033824366	3
0	15409	16.963537824366	2
0	15409	16.963537824366	3
0	15422	16.972041824366	2
0	15422	16.972041824366	3
0	15435	16.980545824366	2
0	15435	16.980545824366	3
0	15444	16.989049824366	2
0	15444	16.989049824366	3
0	15457	16.997553824366	2
0	15457	16.997553824366	3
0	15463	17.006057824366	2
0	15463	17.006057824366	3
0	15468	17.014561824366	2
0	15468	17.014561824366	3
0	15477	17.023065824366	2
0	15477	17.023065824366	3
0	15486	17.031569824366	2
0	15486	17.031569824366	3
0	15495	17.040073824366	2
0	15495	17.040073824366	3
0	15504	17.048577824366	2
0	15504	17.048577824366	3
0	15509	17.057081824366	2
0	15509	17.057081824366	3
0	15522	17.065585824366	2
0	15522	17.065585824366	3
0	15539	17.074089824366	2
0	15539	17.074089824366	3
0	15548	17.082593824366	2
0	15548	17.082593824366	3
0	15557	17.091097824366	2
0	15557	17.091097824366	3
0	15562	17.099601824366	2
0	15562	17.099601824366	3
0	15568	17.108105824366	2
0	15568	17.108105824366	3
0	15573	17.116609824366	2
0	15573	17.116609824366	3
0	15582	17.125113824366	2
0	15582	17.125113824366	3
0	15587	17.133617824366	2
0	15594	17.165344743777	3
0	15597	17.173848743777	2
0	15602	17.176959727879	3
0	15606	17.185463727879	2
0	15611	17.188491961638	3
0	15615	17.196995961638	2
0	15622	17.239195164456	3
0	15625	17.247699164456	2
0	15631	17.265389681026	3
0	15634	17.273893681026	2
0	15639	17.282771290777	3
0	15647	17.291275290777	2
0	15647	17.291275290777	3
0	15659	17.299779290777	2
0	15659	17.299779290777	3
0	15669	17.308283290777	2
0	15669	17.308283290777	3
0	15674	17.316787290777	2
0	15674	17.316787290777	3
0	15679	17.325291290777	2
0	15686	17.359168993052	3
0	15689	17.367672993052	2
0	15695	17.388354616351	3
0	15706	17.396858616351	2
0	15706	17.396858616351	3
0	15711	17.405362616351	2
0	15711	17.405362616351	3
0	15716	17.413866616351	2
0	15722	17.417640931295	3
0	15726	17.426144931295	2
0	15731	17.426885680229	3
0	15738	17.435389680229	2
0	15738	17.435389680229	3
0	15747	17.443893680229	2
0	15747	17.443893680229	3
0	15752	17.452397680229	2
0	15758	17.455405209658	3
0	15774	17.463909209658	2
0	15774	17.463909209658	3
0	15790	17.472413209658	2
0	15790	17.472413209658	3
0	15795	17.480917209658	2
0	15795	17.480917209658	3
0	15816	17.489421209658	2
0	15816	17.489421209658	3
0	15829	17.497925209658	2
0	15829	17.497925209658	3
0	15839	17.506429209658	2
0	15839	17.506429209658	3
0	15844	17.514933209658	2
0	15844	17.514933209658	3
0	15853	17.523437209658	2
0	15853	17.523437209658	3
0	15858	17.531941209658	2
0	15858	17.531941209658	3
0	15863	17.540445209658	2
0	15863	17.540445209658	3
0	15868	17.548949209658	2
0	15868	17.548949209658	3
0	15873	17.557453209658	2
0	15873	17.557453209658	3
0	15878	17.565957209658	2
0	15878	17.565957209658	3
0	15883	17.574461209658	2
0	15883	17.574461209658	3
0	15888	17.582965209658	2
0	15894	17.589664708127	3
0	15898	17.598168708127	2
0	15903	17.59882697533	3
0	15907	17.60733097533	2
0	15914	17.633459336445	3
0	15925	17.641963336445	2
0	15925	17.641963336445	3
0	15933	17.650467336445	2
0	15933	17.650467336445	3
0	15942	17.658971336445	2
0	15942	17.658971336445	3
0	15951	17.667475336445	2
0	15951	17.667475336445	3
0	15960	17.675979336445	2
0	15960	17.675979336445	3
0	15969	17.684483336445	2
0	15969	17.684483336445	3
0	15974	17.692987336445	2
0	15974	17.692987336445	3
0	15980	17.701491336445	2
0	15987	17.712646049883	3
0	15990	17.721150049883	2
0	15996	17.738575412408	3
0	15999	17.747079412408	2
0	16004	17.753102451577	3
0	16012	17.761606451577	2
0	16012	17.761606451577	3
0	16024	17.770110451577	2
0	16024	17.770110451577	3
0	16029	17.778614451577	2
0	16029	17.778614451577	3
0	16038	17.787118451577	2
0	16038	17.787118451577	3
0	16051	17.795622451577	2
0	16051	17.795622451577	3
0	16057	17.804126451577	2
0	16057	17.804126451577	3
0	16062	17.812630451577	2
0	16068	17.817524717539	3
0	16072	17.826028717539	2
0	16077	17.832339997053	3
0	16081	17.840843997053	2
0	16086	17.843802759441	3
0	16090	17.852306759441	2
0	16096	17.862674183292	3
0	16099	17.871178183292	2
0	16105	17.884342977464	3
0	16112	17.892846977464	2
0	16112	17.892846977464	3
0	16117	17.901350977464	2
0	16124	17.917832764971	3
0	16127	17.926336764971	2
0	16133	17.947616035484	3
0	16140	17.956120035484	2
0	16140	17.956120035484	3
0	16148	17.964624035484	2
0	16148	17.964624035484	3
0	16157	17.973128035484	2
0	16157	17.973128035484	3
0	16166	17.981632035484	2
0	16166	17.981632035484	3
0	16171	17.990136035484	2
0	16179	18.014182767162	3
0	16186	18.022686767162	2
0	16186	18.022686767162	3
0	16190	18.031190767162	2
0	16197	18.067756967213	3
0	16200	18.076260967213	2
0	16206	18.095646499436	3
0	16214	18.104150499436	2
0	16214	18.104150499436	3
0	16218	18.112654499436	2
0	16225	18.123421374774	3
0	16228	18.131925374774	2
0	16233	18.141007867353	3
0	16237	18.149511867353	2
0	16242	18.154602398472	3
0	16254	18.163106398472	2
0	16254	18.163106398472	3
0	16258	18.171610398472	2
0	16258	18.171610398472	3
0	16267	18.180114398472	2
0	16267	18.180114398472	3
0	16272	18.188618398472	2
0	16278	18.197427728398	3
0	16287	18.205931728398	2
0	16287	18.205931728398	3
0	16295	18.214435728398	2
0	16295	18.214435728398	3
0	16304	18.222939728398	2
0	16304	18.222939728398	3
0	16309	18.231443728398	2
0	16316	18.244401254609	3
0	16323	18.252905254609	2
0	16323	18.252905254609	3
0	16331	18.261409254609	2
0	16331	18.261409254609	3
0	16344	18.269913254609	2
0	16344	18.269913254609	3
0	16349	18.278417254609	2
0	16349	18.278417254609	3
0	16358	18.286921254609	2
0	16358	18.286921254609	3
0	16363	18.295425254609	2
0	16370	18.303534344759	3
0	16386	18.312038344759	2
0	16386	18.312038344759	3
0	16390	18.320542344759	2
0	16390	18.320542344759	3
0	16395	18.329046344759	2
0	16395	18.329046344759	3
0	16400	18.337550344759	2
0	16406	18.346481120491	3
0	16410	18.354985120491	2
0	16415	18.359682559216	3
0	16419	18.368186559216	2
0	16425	18.399640389274	3
0	16429	18.408144389274	2
0	16434	18.408738872919	3
0	16437	18.417242872919	2
0	16444	18.428176885407	3
0	16451	18.436680885407	2
0	16451	18.436680885407	3
0	16463	18.445184885407	2
0	16463	18.445184885407	3
0	16468	18.453688885407	2
0	16468	18.453688885407	3
0	16477	18.462192885407	2
0	16477	18.462192885407	3
0	16486	18.470696885407	2
0	16486	18.470696885407	3
0	16491	18.479200885407	2
0	16498	18.490639631311	3
0	16501	18.499143631311	2
0	16508	18.539729745173	3
0	16531	18.548233745173	2
0	16531	18.548233745173	3
0	16539	18.556737745173	2
0	16539	18.556737745173	3
0	16544	18.565241745173	2
0	16544	18.565241745173	3
0	16549	18.573745745173	2
0	16549	18.573745745173	3
0	16562	18.582249745173	2
0	16562	18.582249745173	3
0	16571	18.590753745173	2
0	16571	18.590753745173	3
0	16576	18.599257745173	2
[...]
19	9099	8.446920855658	691
19	9108	8.455424855985	692
19	9117	8.463928856312	693
19	9130	8.472432856639	694
19	9155	8.480936856967	695
19	9184	8.489440857294	696
19	9193	8.497944857621	697
19	9203	8.506448857948	698
19	9220	8.514952858276	699
19	9229	8.523456858603	700
19	9242	8.53196085893	701
19	9251	8.540464859257	702
19	9268	8.548968859585	703
19	9285	8.557472859912	704
19	9298	8.565976860239	705
19	9311	8.574480860567	706
19	9324	8.582984860894	707
19	9333	8.591488861221	708
19	9346	8.599992861548	709
19	9356	8.608496861876	710
19	9369	8.617000862203	711
19	9378	8.62550486253	712
19	9387	8.634008862858	713
19	9404	8.642512863185	714
19	9413	8.651016863512	715
19	9422	8.65952086384	716
19	9431	8.668024864167	717
19	9448	8.676528864494	718
19	9457	8.685032864822	719
19	9466	8.693536865149	720
19	9480	8.702040865477	721
19	9488	8.710544865804	722
19	9502	8.722296857888	723
20	87	0.1	400000
20	169	0.2	480000
20	240	0.3	480000
20	332	0.4	560000
20	476	0.5	880000
20	593	0.6	640000
20	715	0.7	720000
20	855	0.8	880000
20	961	0.9	640000
20	1104	1	880000
20	1265	1.1	960000
20	1392	1.2	880000
20	1477	1.3	480000
20	1556	1.4	480000
20	1664	1.5	640000
20	1818	1.6	960000
20	1905	1.7	560000
20	1937	1.8	160000
20	2046	1.9	640000
20	2129	2	560000
20	2250	2.1	640000
20	2391	2.2	960000
20	2509	2.3	720000
20	2660	2.4	800000
20	2766	2.5	720000
20	2881	2.6	720000
20	2968	2.7	560000
20	3098	2.8	720000
20	3251	2.9	960000
20	3370	3	720000
20	3458	3.1	560000
20	3544	3.2	560000
20	3598	3.3	320000
20	3690	3.4	480000
20	3786	3.5	640000
20	3887	3.6	640000
20	3969	3.7	400000
20	4126	3.8	960000
20	4278	3.9	880000
20	4439	4	960000
20	4584	4.1	960000
20	4729	4.2	960000
20	4817	4.3	560000
20	4927	4.4	640000
20	4988	4.5	400000
20	5075	4.6	480000
20	5206	4.7	800000
20	5298	4.8	560000
20	5459	4.9	960000
20	5570	5	720000
20	5674	5.1	640000
20	5784	5.2	640000
20	5854	5.3	480000
20	5903	5.4	240000
20	6004	5.5	640000
20	6142	5.6	880000
20	6209	5.7	400000
20	6258	5.8	240000
20	6358	5.9	640000
20	6450	6	560000
20	6603	6.1	960000
20	6725	6.2	720000
20	6869	6.3	880000
20	7017	6.4	880000
20	7119	6.5	640000
20	7240	6.6	720000
20	7350	6.7	720000
20	7416	6.8	400000
20	7465	6.9	240000
20	7579	7	720000
20	7696	7.1	720000
20	7789	7.2	560000
20	7846	7.3	320000
20	7993	7.4	960000
20	8104	7.5	640000
20	8152	7.6	320000
20	8218	7.7	320000
20	8340	7.8	800000
20	8407	7.9	400000
20	8519	8	640000
20	8637	8.1	800000
20	8773	8.2	800000
20	8908	8.3	800000
20	9036	8.4	800000
20	9203	8.5	880000
20	9356	8.6	960000
20	9480	8.7	880000
20	48766	8.8	240000
20	48766	8.9	0
20	48766	9	0
20	48766	9.1	0
20	48766	9.2	0
20	48766	9.3	0
20	48766	9.4	0
20	48766	9.5	0
20	48766	9.6	0
20	48766	9.7	0
20	48766	9.8	0
20	48766	9.9	0
20	48766	10	0
20	48766	10.1	0
20	48766	10.2	0
20	48766	10.3	0
20	48766	10.4	0
20	48766	10.5	0
20	48766	10.6	0
20	48766	10.7	0
20	48766	10.8	0
20	48766	10.9	0
20	48766	11	0
20	48766	11.1	0
20	48766	11.2	0
20	48766	11.3	0
20	48766	11.4	0
20	48766	11.5	0
20	48766	11.6	0
20	48766	11.7	0
20	48766	11.8	0
20	48766	11.9	0
20	48766	12	0
20	48766	12.1	0
20	48766	12.2	0
20	48766	12.3	0
20	48766	12.4	0
20	48766	12.5	0
20	48766	12.6	0
20	48766	12.7	0
20	48766	12.8	0
20	48766	12.9	0
20	48766	13	0
20	48766	13.1	0
20	48766	13.2	0
20	48766	13.3	0
20	48766	13.4	0
20	48766	13.5	0
20	48766	13.6	0
20	48766	13.7	0
20	48766	13.8	0
20	48766	13.9	0
20	48766	14	0
20	48766	14.1	0
20	48766	14.2	0
20	48766	14.3	0
20	48766	14.4	0
20	48766	14.5	0
20	48766	14.6	0
20	48766	14.7	0
20	48766	14.8	0
20	48766	14.9	0
20	48766	15	0
20	48766	15.1	0
20	48766	15.2	0
20	48766	15.3	0
20	48766	15.4	0
20	48766	15.5	0
20	48766	15.6	0
20	48766	15.7	0
20	48766	15.8	0
20	48766	15.9	0
20	48766	16	0
20	48766	16.1	0
20	48766	16.2	0
20	48766	16.3	0
20	48766	16.4	0
20	48766	16.5	0
20	48766	16.6	0
20	48766	16.7	0
20	48766	16.8	0
20	48766	16.9	0
20	48766	17	0
20	48766	17.1	0
20	48766	17.2	0
20	48766	17.3	0
20	48766	17.4	0
20	48766	17.5	0
20	48766	17.6	0
20	48766	17.7	0
20	48766	17.8	0
20	48766	17.9	0
20	48766	18	0
20	48766	18.1	0
20	48766	18.2	0
20	48766	18.3	0
20	48766	18.4	0
20	48766	18.5	0
20	48766	18.6	0
20	48766	18.7	0
20	48766	18.8	0
20	48766	18.9	0
20	48766	19	0
20	48766	19.1	0
20	48766	19.2	0
20	48766	19.3	0
20	48766	19.4	0
20	48766	19.5	0
20	48766	19.6	0
20	48766	19.7	0
20	48766	19.8	0
20	48766	19.9	0
20	48766	20	0
20	48766	20.1	0
20	48766	20.2	0
20	48766	20.3	0
20	48766	20.4	0
20	48766	20.5	0
20	48766	20.6	0
20	48766	20.7	0
20	48766	20.8	0
20	48766	20.9	0
20	48766	21	0
20	48766	21.1	0
20	48766	21.2	0
20	48766	21.3	0
20	48766	21.4	0
20	48766	21.5	0
20	48766	21.6	0
20	48766	21.7	0
20	48766	21.8	0
20	48766	21.9	0
20	48766	22	0
20	48766	22.1	0
20	48766	22.2	0
20	48766	22.3	0
20	48766	22.4	0
20	48766	22.5	0
20	48766	22.6	0
20	48766	22.7	0
20	48766	22.8	0
20	48766	22.9	0
20	48766	23	0
20	48766	23.1	0
20	48766	23.2	0
20	48766	23.3	0
20	48766	23.4	0
20	48766	23.5	0
20	48766	23.6	0
20	48766	23.7	0
20	48766	23.8	0
20	48766	23.9	0
20	48766	24	0
20	48766	24.1	0
20	48766	24.2	0
20	48766	24.3	0
20	48766	24.4	0
20	48766	24.5	0
20	48766	24.6	0
20	48766	24.7	0
20	48766	24.8	0
20	48766	24.9	0
20	48766	25	0
20	48766	25.1	0
20	48766	25.2	0
20	48766	25.3	0
20	48766	25.4	0
20	48766	25.5	0
20	48766	25.6	0
20	48766	25.7	0
20	48766	25.8	0
20	48766	25.9	0
20	48766	26	0
20	48766	26.1	0
20	48766	26.2	0
20	48766	26.3	0
20	48766	26.4	0
20	48766	26.5	0
20	48766	26.6	0
20	48766	26.7	0
20	48766	26.8	0
20	48766	26.9	0
20	48766	27	0
20	48766	27.1	0
20	48766	27.2	0
20	48766	27.3	0
20	48766	27.4	0
20	48766	27.5	0
20	48766	27.6	0
20	48766	27.7	0
20	48766	27.8	0
20	48766	27.9	0
20	48766	28	0
20	48766	28.1	0
20	48766	28.2	0
20	48766	28.3	0
20	48766	28.4	0
20	48766	28.5	0
20	48766	28.6	0
20	48766	28.7	0
20	48766	28.8	0
20	48766	28.9	0
20	48766	29	0
20	48766	29.1	0
20	48766	29.2	0
20	48766	29.3	0
20	48766	29.4	0
20	48766	29.5	0
20	48766	29.6	0
20	48766	29.7	0
20	48766	29.8	0
20	48766	29.9	0
20	48766	30	0
20	48766	30.1	0
20	48766	30.2	0
20	48766	30.3	0
20	48766	30.4	0
20	48766	30.5	0
20	48766	30.6	0
20	48766	30.7	0
20	48766	30.8	0
20	48766	30.9	0
20	48766	31	0
20	48766	31.1	0
20	48766	31.2	0
20	48766	31.3	0
20	48766	31.4	0
20	48766	31.5	0
20	48766	31.6	0
20	48766	31.7	0
20	48766	31.8	0
20	48766	31.9	0
20	48766	32	0
20	48766	32.1	0
20	48766	32.2	0
20	48766	32.3	0
20	48766	32.4	0
20	48766	32.5	0
20	48766	32.6	0
20	48766	32.7	0
20	48766	32.8	0
20	48766	32.9	0
20	48766	33	0
20	48766	33.1	0
20	48766	33.2	0
20	48766	33.3	0
20	48766	33.4	0
20	48766	33.5	0
20	48766	33.6	0
20	48766	33.7	0
20	48766	33.8	0
20	48766	33.9	0
20	48766	34	0
20	48766	34.1	0
20	48766	34.2	0
20	48766	34.3	0
20	48766	34.4	0
20	48766	34.5	0
20	48766	34.6	0
20	48766	34.7	0
20	48766	34.8	0
20	48766	34.9	0
20	48766	35	0
20	48766	35.1	0
20	48766	35.2	0
20	48766	35.3	0
20	48766	35.4	0
20	48766	35.5	0
20	48766	35.6	0
20	48766	35.7	0
20	48766	35.8	0
20	48766	35.9	0
20	48766	36	0
20	48766	36.1	0
20	48766	36.2	0
20	48766	36.3	0
20	48766	36.4	0
20	48766	36.5	0
20	48766	36.6	0
20	48766	36.7	0
20	48766	36.8	0
20	48766	36.9	0
20	48766	37	0
20	48766	37.1	0
20	48766	37.2	0
20	48766	37.3	0
20	48766	37.4	0
20	48766	37.5	0
20	48766	37.6	0
20	48766	37.7	0
20	48766	37.8	0
20	48766	37.9	0
20	48766	38	0
20	48766	38.1	0
20	48766	38.2	0
20	48766	38.3	0
20	48766	38.4	0
20	48766	38.5	0
20	48766	38.6	0
20	48766	38.7	0
20	48766	38.8	0
20	48766	38.9	0
20	48766	39	0
20	48766	39.1	0
20	48766	39.2	0
20	48766	39.3	0
20	48766	39.4	0
20	48766	39.5	0
20	48766	39.6	0
20	48766	39.7	0
20	48766	39.8	0
20	48766	39.9	0
20	48766	40	0
20	48766	40.1	0
20	48766	40.2	0
20	48766	40.3	0
20	48766	40.4	0
20	48766	40.5	0
20	48766	40.6	0
20	48766	40.7	0
20	48766	40.8	0
20	48766	40.9	0
20	48766	41	0
20	48766	41.1	0
20	48766	41.2	0
20	48766	41.3	0
20	48766	41.4	0
20	48766	41.5	0
20	48766	41.6	0
20	48766	41.7	0
20	48766	41.8	0
20	48766	41.9	0
20	48766	42	0
20	48766	42.1	0
20	48766	42.2	0
20	48766	42.3	0
20	48766	42.4	0
20	48766	42.5	0
20	48766	42.6	0
20	48766	42.7	0
20	48766	42.8	0
20	48766	42.9	0
20	48766	43	0
20	48766	43.1	0
20	48766	43.2	0
20	48766	43.3	0
20	48766	43.4	0
20	48766	43.5	0
20	48766	43.6	0
20	48766	43.7	0
20	48766	43.8	0
20	48766	43.9	0
20	48766	44	0
20	48766	44.1	0
20	48766	44.2	0
20	48766	44.3	0
20	48766	44.4	0
20	48766	44.5	0
20	48766	44.6	0
20	48766	44.7	0
20	48766	44.8	0
20	48766	44.9	0
20	48766	45	0
20	48766	45.1	0
20	48766	45.2	0
20	48766	45.3	0
20	48766	45.4	0
20	48766	45.5	0
20	48766	45.6	0
20	48766	45.7	0
20	48766	45.8	0
20	48766	45.9	0
20	48766	46	0
20	48766	46.1	0
20	48766	46.2	0
20	48766	46.3	0
20	48766	46.4	0
20	48766	46.5	0
20	48766	46.6	0
20	48766	46.7	0
20	48766	46.8	0
20	48766	46.9	0
20	48766	47	0
20	48766	47.1	0
20	48766	47.2	0
20	48766	47.3	0
20	48766	47.4	0
20	48766	47.5	0
20	48766	47.6	0
20	48766	47.7	0
20	48766	47.8	0
20	48766	47.9	0
20	48766	48	0
20	48766	48.1	0
20	48766	48.2	0
20	48766	48.3	0
20	48766	48.4	0
20	48766	48.5	0
20	48766	48.6	0
20	48766	48.7	0
20	48766	48.8	0
20	48766	48.9	0
20	48766	49	0
20	48766	49.1	0
20	48766	49.2	0
20	48766	49.3	0
20	48766	49.4	0
20	48766	49.5	0
20	48766	49.6	0
20	48766	49.7	0
20	48766	49.8	0
20	48766	49.9	0
20	48766	50	0
20	48766	50.1	0
20	48766	50.2	0
20	48766	50.3	0
20	48766	50.4	0
20	48766	50.5	0
20	48766	50.6	0
20	48766	50.7	0
20	48766	50.8	0
20	48766	50.9	0
20	48766	51	0
20	48766	51.1	0
20	48766	51.2	0
20	48766	51.3	0
20	48766	51.4	0
20	48766	51.5	0
20	48766	51.6	0
20	48766	51.7	0
20	48766	51.8	0
20	48766	51.9	0
20	48766	52	0
20	48766	52.1	0
20	48766	52.2	0
20	48766	52.3	0
20	48766	52.4	0
20	48766	52.5	0
20	48766	52.6	0
20	48766	52.7	0
20	48766	52.8	0
20	48766	52.9	0
20	48766	53	0
20	48766	53.1	0
20	48766	53.2	0
20	48766	53.3	0
20	48766	53.4	0
20	48766	53.5	0
20	48766	53.6	0
20	48766	53.7	0
20	48766	53.8	0
20	48766	53.9	0
20	48766	54	0
20	48766	54.1	0
20	48766	54.2	0
20	48766	54.3	0
20	48766	54.4	0
20	48766	54.5	0
20	48766	54.6	0
20	48766	54.7	0
20	48766	54.8	0
20	48766	54.9	0
20	48766	55	0
20	48766	55.1	0
20	48766	55.2	0
20	48766	55.3	0
20	48766	55.4	0
20	48766	55.5	0
20	48766	55.6	0
20	48766	55.7	0
20	48766	55.8	0
20	48766	55.9	0
20	48766	56	0
20	48766	56.1	0
20	48766	56.2	0
20	48766	56.3	0
20	48766	56.4	0
20	48766	56.5	0
20	48766	56.6	0
20	48766	56.7	0
20	48766	56.8	0
20	48766	56.9	0
20	48766	57	0
20	48766	57.1	0
20	48766	57.2	0
20	48766	57.3	0
20	48766	57.4	0
20	48766	57.5	0
20	48766	57.6	0
20	48766	57.7	0
20	48766	57.8	0
20	48766	57.9	0
20	48766	58	0
20	48766	58.1	0
20	48766	58.2	0
20	48766	58.3	0
20	48766	58.4	0
20	48766	58.5	0
20	48766	58.6	0
20	48766	58.7	0
20	48766	58.8	0
20	48766	58.9	0
20	48766	59	0
20	48766	59.1	0
20	48766	59.2	0
20	48766	59.3	0
20	48766	59.4	0
20	48766	59.5	0
20	48766	59.6	0
20	48766	59.7	0
20	48766	59.8	0
20	48766	59.9	0
20	48766	60	0
21	48766	0.1	0
21	48766	0.2	0
21	48766	0.3	0
21	48766	0.4	0
21	48766	0.5	0
21	48766	0.6	0
21	48766	0.7	0
21	48766	0.8	0
21	48766	0.9	0
21	48766	1	0
21	48766	1.1	0
21	48766	1.2	0
21	48766	1.3	0
21	48766	1.4	0
21	48766	1.5	0
21	48766	1.6	0
21	48766	1.7	0
21	48766	1.8	0
21	48766	1.9	0
21	48766	2	0
21	48766	2.1	0
21	48766	2.2	0
21	48766	2.3	0
21	48766	2.4	0
21	48766	2.5	0
21	48766	2.6	0
21	48766	2.7	0
21	48766	2.8	0
21	48766	2.9	0
21	48766	3	0
21	48766	3.1	0
21	48766	3.2	0
21	48766	3.3	0
21	48766	3.4	0
21	48766	3.5	0
21	48766	3.6	0
21	48766	3.7	0
21	48766	3.8	0
21	48766	3.9	0
21	48766	4	0
21	48766	4.1	0
21	48766	4.2	0
21	48766	4.3	0
21	48766	4.4	0
21	48766	4.5	0
21	48766	4.6	0
21	48766	4.7	0
21	48766	4.8	0
21	48766	4.9	0
21	48766	5	0
21	48766	5.1	0
21	48766	5.2	0
21	48766	5.3	0
21	48766	5.4	0
21	48766	5.5	0
21	48766	5.6	0
21	48766	5.7	0
21	48766	5.8	0
21	48766	5.9	0
21	48766	6	0
21	48766	6.1	0
21	48766	6.2	0
21	48766	6.3	0
21	48766	6.4	0
21	48766	6.5	0
21	48766	6.6	0
21	48766	6.7	0
21	48766	6.8	0
21	48766	6.9	0
21	48766	7	0
21	48766	7.1	0
21	48766	7.2	0
21	48766	7.3	0
21	48766	7.4	0
21	48766	7.5	0
21	48766	7.6	0
21	48766	7.7	0
21	48766	7.8	0
21	48766	7.9	0
21	48766	8	0
21	48766	8.1	0
21	48766	8.2	0
21	48766	8.3	0
21	48766	8.4	0
21	48766	8.5	0
21	48766	8.6	0
21	48766	8.7	0
21	48766	8.8	0
21	48766	8.9	0
21	48766	9	0
21	48766	9.1	0
21	48766	9.2	0
21	48766	9.3	0
21	48766	9.4	0
21	48766	9.5	0
21	48766	9.6	0
21	48766	9.7	0
21	48766	9.8	0
21	48766	9.9	0
21	48766	10	0
21	48766	10.1	0
21	48766	10.2	0
21	48766	10.3	0
21	48766	10.4	0
21	48766	10.5	0
21	48766	10.6	0
21	48766	10.7	0
21	48766	10.8	0
21	48766	10.9	0
21	48766	11	0
21	48766	11.1	0
21	48766	11.2	0
21	48766	11.3	0
21	48766	11.4	0
21	48766	11.5	0
21	48766	11.6	0
21	48766	11.7	0
21	48766	11.8	0
21	48766	11.9	0
21	48766	12	0
21	48766	12.1	0
21	48766	12.2	0
21	48766	12.3	0
21	48766	12.4	0
21	48766	12.5	0
21	48766	12.6	0
21	48766	12.7	0
21	48766	12.8	0
21	48766	12.9	0
21	48766	13	0
21	48766	13.1	0
21	48766	13.2	0
21	48766	13.3	0
21	48766	13.4	0
21	48766	13.5	0
21	48766	13.6	0
21	48766	13.7	0
21	48766	13.8	0
21	48766	13.9	0
21	48766	14	0
21	48766	14.1	0
21	48766	14.2	0
21	48766	14.3	0
21	48766	14.4	0
21	48766	14.5	0
21	48766	14.6	0
21	48766	14.7	0
21	48766	14.8	0
21	48766	14.9	0
21	48766	15	0
21	48766	15.1	0
21	48766	15.2	0
21	48766	15.3	0
21	48766	15.4	0
21	48766	15.5	0
21	48766	15.6	0
21	48766	15.7	0
21	48766	15.8	0
21	48766	15.9	0
21	48766	16	0
21	48766	16.1	0
21	48766	16.2	0
21	48766	16.3	0
21	48766	16.4	0
21	48766	16.5	0
21	48766	16.6	0
21	48766	16.7	0
21	48766	16.8	0
21	48766	16.9	0
21	48766	17	0
21	48766	17.1	0
21	48766	17.2	0
21	48766	17.3	0
21	48766	17.4	0
21	48766	17.5	0
21	48766	17.6	0
21	48766	17.7	0
21	48766	17.8	0
21	48766	17.9	0
21	48766	18	0
21	48766	18.1	0
21	48766	18.2	0
21	48766	18.3	0
21	48766	18.4	0
21	48766	18.5	0
21	48766	18.6	0
21	48766	18.7	0
21	48766	18.8	0
21	48766	18.9	0
21	48766	19	0
21	48766	19.1	0
21	48766	19.2	0
21	48766	19.3	0
21	48766	19.4	0
21	48766	19.5	0
21	48766	19.6	0
21	48766	19.7	0
21	48766	19.8	0
21	48766	19.9	0
21	48766	20	0
21	48766	20.1	0
21	48766	20.2	0
21	48766	20.3	0
21	48766	20.4	0
21	48766	20.5	0
21	48766	20.6	0
21	48766	20.7	0
21	48766	20.8	0
21	48766	20.9	0
21	48766	21	0
21	48766	21.1	0
21	48766	21.2	0
21	48766	21.3	0
21	48766	21.4	0
21	48766	21.5	0
21	48766	21.6	0
21	48766	21.7	0
21	48766	21.8	0
21	48766	21.9	0
21	48766	22	0
21	48766	22.1	0
21	48766	22.2	0
21	48766	22.3	0
21	48766	22.4	0
21	48766	22.5	0
21	48766	22.6	0
21	48766	22.7	0
21	48766	22.8	0
21	48766	22.9	0
21	48766	23	0
21	48766	23.1	0
21	48766	23.2	0
21	48766	23.3	0
21	48766	23.4	0
21	48766	23.5	0
21	48766	23.6	0
21	48766	23.7	0
21	48766	23.8	0
21	48766	23.9	0
21	48766	24	0
21	48766	24.1	0
21	48766	24.2	0
21	48766	24.3	0
21	48766	24.4	0
21	48766	24.5	0
21	48766	24.6	0
21	48766	24.7	0
21	48766	24.8	0
21	48766	24.9	0
21	48766	25	0
21	48766	25.1	0
21	48766	25.2	0
21	48766	25.3	0
21	48766	25.4	0
21	48766	25.5	0
21	48766	25.6	0
21	48766	25.7	0
21	48766	25.8	0
21	48766	25.9	0
21	48766	26	0
21	48766	26.1	0
21	48766	26.2	0
21	48766	26.3	0
21	48766	26.4	0
21	48766	26.5	0
21	48766	26.6	0
21	48766	26.7	0
21	48766	26.8	0
21	48766	26.9	0
21	48766	27	0
21	48766	27.1	0
21	48766	27.2	0
21	48766	27.3	0
21	48766	27.4	0
21	48766	27.5	0
21	48766	27.6	0
21	48766	27.7	0
21	48766	27.8	0
21	48766	27.9	0
21	48766	28	0
21	48766	28.1	0
21	48766	28.2	0
21	48766	28.3	0
21	48766	28.4	0
21	48766	28.5	0
21	48766	28.6	0
21	48766	28.7	0
21	48766	28.8	0
21	48766	28.9	0
21	48766	29	0
21	48766	29.1	0
21	48766	29.2	0
21	48766	29.3	0
21	48766	29.4	0
21	48766	29.5	0
21	48766	29.6	0
21	48766	29.7	0
21	48766	29.8	0
21	48766	29.9	0
21	48766	30	0
21	48766	30.1	0
21	48766	30.2	0
21	48766	30.3	0
21	48766	30.4	0
21	48766	30.5	0
21	48766	30.6	0
21	48766	30.7	0
21	48766	30.8	0
21	48766	30.9	0
21	48766	31	0
21	48766	31.1	0
21	48766	31.2	0
21	48766	31.3	0
21	48766	31.4	0
21	48766	31.5	0
21	48766	31.6	0
21	48766	31.7	0
21	48766	31.8	0
21	48766	31.9	0
21	48766	32	0
21	48766	32.1	0
21	48766	32.2	0
21	48766	32.3	0
21	48766	32.4	0
21	48766	32.5	0
21	48766	32.6	0
21	48766	32.7	0
21	48766	32.8	0
21	48766	32.9	0
21	48766	33	0
21	48766	33.1	0
21	48766	33.2	0
21	48766	33.3	0
21	48766	33.4	0
21	48766	33.5	0
21	48766	33.6	0
21	48766	33.7	0
21	48766	33.8	0
21	48766	33.9	0
21	48766	34	0
21	48766	34.1	0
21	48766	34.2	0
21	48766	34.3	0
21	48766	34.4	0
21	48766	34.5	0
21	48766	34.6	0
21	48766	34.7	0
21	48766	34.8	0
21	48766	34.9	0
21	48766	35	0
21	48766	35.1	0
21	48766	35.2	0
21	48766	35.3	0
21	48766	35.4	0
21	48766	35.5	0
21	48766	35.6	0
21	48766	35.7	0
21	48766	35.8	0
21	48766	35.9	0
21	48766	36	0
21	48766	36.1	0
21	48766	36.2	0
21	48766	36.3	0
21	48766	36.4	0
21	48766	36.5	0
21	48766	36.6	0
21	48766	36.7	0
21	48766	36.8	0
21	48766	36.9	0
21	48766	37	0
21	48766	37.1	0
21	48766	37.2	0
21	48766	37.3	0
21	48766	37.4	0
21	48766	37.5	0
21	48766	37.6	0
21	48766	37.7	0
21	48766	37.8	0
21	48766	37.9	0
21	48766	38	0
21	48766	38.1	0
21	48766	38.2	0
21	48766	38.3	0
21	48766	38.4	0
21	48766	38.5	0
21	48766	38.6	0
21	48766	38.7	0
21	48766	38.8	0
21	48766	38.9	0
21	48766	39	0
21	48766	39.1	0
21	48766	39.2	0
21	48766	39.3	0
21	48766	39.4	0
21	48766	39.5	0
21	48766	39.6	0
21	48766	39.7	0
21	48766	39.8	0
21	48766	39.9	0
21	48766	40	0
21	48766	40.1	0
21	48766	40.2	0
21	48766	40.3	0
21	48766	40.4	0
21	48766	40.5	0
21	48766	40.6	0
21	48766	40.7	0
21	48766	40.8	0
21	48766	40.9	0
21	48766	41	0
21	48766	41.1	0
21	48766	41.2	0
21	48766	41.3	0
21	48766	41.4	0
21	48766	41.5	0
21	48766	41.6	0
21	48766	41.7	0
21	48766	41.8	0
21	48766	41.9	0
21	48766	42	0
21	48766	42.1	0
21	48766	42.2	0
21	48766	42.3	0
21	48766	42.4	0
21	48766	42.5	0
21	48766	42.6	0
21	48766	42.7	0
21	48766	42.8	0
21	48766	42.9	0
21	48766	43	0
21	48766	43.1	0
21	48766	43.2	0
21	48766	43.3	0
21	48766	43.4	0
21	48766	43.5	0
21	48766	43.6	0
21	48766	43.7	0
21	48766	43.8	0
21	48766	43.9	0
21	48766	44	0
21	48766	44.1	0
21	48766	44.2	0
21	48766	44.3	0
21	48766	44.4	0
21	48766	44.5	0
21	48766	44.6	0
21	48766	44.7	0
21	48766	44.8	0
21	48766	44.9	0
21	48766	45	0
21	48766	45.1	0
21	48766	45.2	0
21	48766	45.3	0
21	48766	45.4	0
21	48766	45.5	0
21	48766	45.6	0
21	48766	45.7	0
21	48766	45.8	0
21	48766	45.9	0
21	48766	46	0
21	48766	46.1	0
21	48766	46.2	0
21	48766	46.3	0
21	48766	46.4	0
21	48766	46.5	0
21	48766	46.6	0
21	48766	46.7	0
21	48766	46.8	0
21	48766	46.9	0
21	48766	47	0
21	48766	47.1	0
21	48766	47.2	0
21	48766	47.3	0
21	48766	47.4	0
21	48766	47.5	0
21	48766	47.6	0
21	48766	47.7	0
21	48766	47.8	0
21	48766	47.9	0
21	48766	48	0
21	48766	48.1	0
21	48766	48.2	0
21	48766	48.3	0
21	48766	48.4	0
21	48766	48.5	0
21	48766	48.6	0
21	48766	48.7	0
21	48766	48.8	0
21	48766	48.9	0
21	48766	49	0
21	48766	49.1	0
21	48766	49.2	0
21	48766	49.3	0
21	48766	49.4	0
21	48766	49.5	0
21	48766	49.6	0
21	48766	49.7	0
21	48766	49.8	0
21	48766	49.9	0
21	48766	50	0
21	48766	50.1	0
21	48766	50.2	0
21	48766	50.3	0
21	48766	50.4	0
21	48766	50.5	0
21	48766	50.6	0
21	48766	50.7	0
21	48766	50.8	0
21	48766	50.9	0
21	48766	51	0
21	48766	51.1	0
21	48766	51.2	0
21	48766	51.3	0
21	48766	51.4	0
21	48766	51.5	0
21	48766	51.6	0
21	48766	51.7	0
21	48766	51.8	0
21	48766	51.9	0
21	48766	52	0
21	48766	52.1	0
21	48766	52.2	0
21	48766	52.3	0
21	48766	52.4	0
21	48766	52.5	0
21	48766	52.6	0
21	48766	52.7	0
21	48766	52.8	0
21	48766	52.9	0
21	48766	53	0
21	48766	53.1	0
21	48766	53.2	0
21	48766	53.3	0
21	48766	53.4	0
21	48766	53.5	0
21	48766	53.6	0
21	48766	53.7	0
21	48766	53.8	0
21	48766	53.9	0
21	48766	54	0
21	48766	54.1	0
21	48766	54.2	0
21	48766	54.3	0
21	48766	54.4	0
21	48766	54.5	0
21	48766	54.6	0
21	48766	54.7	0
21	48766	54.8	0
21	48766	54.9	0
21	48766	55	0
21	48766	55.1	0
21	48766	55.2	0
21	48766	55.3	0
21	48766	55.4	0
21	48766	55.5	0
21	48766	55.6	0
21	48766	55.7	0
21	48766	55.8	0
21	48766	55.9	0
21	48766	56	0
21	48766	56.1	0
21	48766	56.2	0
21	48766	56.3	0
21	48766	56.4	0
21	48766	56.5	0
21	48766	56.6	0
21	48766	56.7	0
21	48766	56.8	0
21	48766	56.9	0
21	48766	57	0
21	48766	57.1	0
21	48766	57.2	0
21	48766	57.3	0
21	48766	57.4	0
21	48766	57.5	0
21	48766	57.6	0
21	48766	57.7	0
21	48766	57.8	0
21	48766	57.9	0
21	48766	58	0
21	48766	58.1	0
21	48766	58.2	0
21	48766	58.3	0
21	48766	58.4	0
21	48766	58.5	0
21	48766	58.6	0
21	48766	58.7	0
21	48766	58.8	0
21	48766	58.9	0
21	48766	59	0
21	48766	59.1	0
21	48766	59.2	0
21	48766	59.3	0
21	48766	59.4	0
21	48766	59.5	0
21	48766	59.6	0
21	48766	59.7	0
21	48766	59.8	0
21	48766	59.9	0
21	48766	60	0

