version 2
run canvas-0-20210513-09:21:35-10308
attr configname canvas
attr datetime 20210513-09:21:35
attr experiment canvas
attr inifile omnetpp.ini
attr iterationvars ""
attr iterationvarsf ""
attr measurement ""
attr network RoutingScenario
attr processid 10308
attr repetition 0
attr replication #0
attr resultdir results
attr runnumber 0
attr seedset 0
param *.visualizer.*.obstacleLossVisualizer.displayIntersections true
param *.visualizer.*.obstacleLossVisualizer.displayFaceNormalVectors true
param *.visualizer.*.obstacleLossVisualizer.intersectionLineColor "\"yellow\""
param *.visualizer.*.mediumVisualizer.signalPropagationAnimationSpeed 500/3e8
param *.visualizer.*.mediumVisualizer.signalTransmissionAnimationSpeed 50000/3e8
param *.visualizer.*.mediumVisualizer.displaySignals true
param *.visualizer.canvasVisualizer.mediumVisualizer.displaySignalDepartures false
param *.visualizer.canvasVisualizer.mediumVisualizer.displaySignalArrivals false
param *.visualizer.*.physicalLinkVisualizer.displayLinks true
param *.visualizer.*.mobilityVisualizer.displayPositions true
param *.visualizer.*.mobilityVisualizer.displayOrientations true
param *.visualizer.*.mobilityVisualizer.displayVelocities true
param *.visualizer.*.mobilityVisualizer.displayMovementTrails true
param *.visualizer.*.mobilityVisualizer.moduleFilter "\"**.antenna.mobility\""
param *.node[1].router "\"SecureAodv\""
param *.node[2].router "\"SecureAodv\""
param *.node[*].router "\"SecureAodv\""
param RoutingScenario.numV 25
param *.node[*].numApps 1
param *.node[*].app[0].typename "\"UdpBasicApp\""
param *.node[*].app[0].destAddresses "\"node[*]\""
param *.node[*].app[0].destPort 5000
param *.node[*].app[0].messageLength 1000B
param *.node[*].app[0].sendInterval exponential(12ms)
param *.node[*].app[0].packetName "\"UDPData\""
param *.node[*].wlan[0].opMode "\"p\""
param *.node[*].wlan[0].radio.bandName "\"5.9 GHz\""
param *.node[*].wlan[0].radio.channelNumber 3
param *.node[*].wlan[0].radio.transmitter.power 20mW
param *.node[*].wlan[0].radio.bandwidth "10 MHz"
param *.node[*].ipv4.configurator.typename "\"HostAutoConfigurator\""
param *.node[*].ipv4.configurator.interfaces "\"wlan0\""
param *.node[*].ipv4.configurator.mcastGroups "\"224.0.0.1\""
param *.node[*].mobility.typename "\"VeinsInetMobility\""
param *.node[*].mobility.speed 20mps
param *.manager.updateInterval 0.1s
param *.manager.host "\"localhost\""
param *.manager.port 9999
param *.manager.autoShutdown true
param *.manager.launchConfig "xmldoc(\"downtown.launchd.xml\")"
param *.manager.moduleType "\"vanetnetsec.veins_inet.VeinsInetRoutingCar\""
param *.physicalEnvironment.config "xmldoc(\"obstacles.xml\")"
param *.radioMedium.obstacleLoss.typename "\"IdealObstacleLoss\""

vector 0 RoutingScenario.node[0].wlan[0].radio radioMode:vector ETV
attr interpolationmode sample-hold
attr source radioModeChanged
attr title "Radio mode, vector"
vector 1 RoutingScenario.node[0].wlan[0].radio radioChannel:vector ETV
attr interpolationmode sample-hold
attr source radioChannelChanged
attr title "Radio channel, vector"
vector 2 RoutingScenario.node[0].wlan[0].radio receptionState:vector ETV
attr interpolationmode sample-hold
attr source receptionStateChanged
attr title "Radio reception state, vector"
vector 3 RoutingScenario.node[0].wlan[0].mac.dcf.recoveryProcedure contentionWindowChanged:vector ETV
attr interpolationmode sample-hold
attr title "contention window, vector"
vector 4 RoutingScenario.node[0].app[0] packetSent:vector(packetBytes) ETV
attr interpolationmode none
attr source packetSent
attr title "packets sent, vector(packetBytes)"
vector 5 RoutingScenario.node[0].udp packetSent:vector(packetBytes) ETV
attr interpolationmode none
attr source packetSent
attr title "packets sent, vector(packetBytes)"
vector 6 RoutingScenario.node[0].lo[0].lo rcvdPkFromHl:vector(packetBytes) ETV
attr interpolationmode none
attr source packetReceivedFromUpper
attr title "packets received from higher layer, vector(packetBytes)"
vector 7 RoutingScenario.node[0].lo[0].lo passedUpPk:vector(packetBytes) ETV
attr interpolationmode none
attr source packetSentToUpper
attr title "packets passed to higher layer, vector(packetBytes)"
vector 8 RoutingScenario.node[0].udp packetReceived:vector(packetBytes) ETV
attr interpolationmode none
attr source packetReceived
attr title "packets received, vector(packetBytes)"
vector 9 RoutingScenario.node[0].udp droppedPkWrongPort:vector(count) ETV
attr interpolationmode none
attr source packetDropReasonIsNoPortFound(packetDropped)
attr title "packets dropped (wrong port), vector(count)"
vector 10 RoutingScenario.node[1].wlan[0].radio radioMode:vector ETV
attr interpolationmode sample-hold
attr source radioModeChanged
attr title "Radio mode, vector"
vector 11 RoutingScenario.node[1].wlan[0].radio radioChannel:vector ETV
attr interpolationmode sample-hold
attr source radioChannelChanged
attr title "Radio channel, vector"
vector 12 RoutingScenario.node[1].wlan[0].radio receptionState:vector ETV
attr interpolationmode sample-hold
attr source receptionStateChanged
attr title "Radio reception state, vector"
vector 13 RoutingScenario.node[1].wlan[0].mac.dcf.recoveryProcedure contentionWindowChanged:vector ETV
attr interpolationmode sample-hold
attr title "contention window, vector"
vector 14 RoutingScenario.node[1].app[0] packetSent:vector(packetBytes) ETV
attr interpolationmode none
attr source packetSent
attr title "packets sent, vector(packetBytes)"
vector 15 RoutingScenario.node[1].udp packetSent:vector(packetBytes) ETV
attr interpolationmode none
attr source packetSent
attr title "packets sent, vector(packetBytes)"
vector 16 RoutingScenario.node[1].wlan[0].mac packetReceivedFromUpper:vector(packetBytes) ETV
attr interpolationmode none
attr title "packets received from upper layer, vector(packetBytes)"
vector 17 RoutingScenario.node[1].wlan[0].mac.dcf.channelAccess.pendingQueue packetPushed:vector(packetBytes) ETV
attr interpolationmode none
attr title "packet pushed, vector(packetBytes)"
vector 18 RoutingScenario.node[1].wlan[0].mac.dcf.channelAccess.pendingQueue queueLength:vector ETV
attr interpolationmode sample-hold
attr source "count(packetPushed) - count(packetPopped) - count(packetRemoved) - count(packetDropped)"
attr title "queue length, vector"
vector 19 RoutingScenario.node[1].wlan[0].mac.dcf.channelAccess.contention backoffPeriodGenerated:vector ETV
attr interpolationmode none
attr title "backoff periods, vector"
vector 20 RoutingScenario.node[1].wlan[0].mac.dcf.channelAccess.contention backoffActive:vector ETV
attr interpolationmode sample-hold
attr source count(backoffStarted)-count(backoffStopped)
attr title "backoff active, vector"
vector 21 RoutingScenario.node[1].wlan[0].mac.dcf.channelAccess.pendingQueue packetPopped:vector(packetBytes) ETV
attr interpolationmode none
attr title "packet popped, vector(packetBytes)"
vector 22 RoutingScenario.node[1].wlan[0].mac.dcf.channelAccess.pendingQueue queueingTime:vector ETV
attr interpolationmode none
attr source queueingTime(packetPopped)
attr title "queueing times, vector"
attr unit s
vector 23 RoutingScenario.node[1].wlan[0].mac.dcf.channelAccess.inProgressFrames queueLength:vector ETV
attr interpolationmode sample-hold
attr source "count(packetEnqueued) - count(packetDequeued)"
attr title "queue length, vector"
vector 24 RoutingScenario.node[1].wlan[0].mac.dcf datarateSelected:vector ETV
attr interpolationmode none
attr title "datarates selected, vector"
vector 25 RoutingScenario.node[1].wlan[0].mac packetSentToLower:vector(packetBytes) ETV
attr interpolationmode none
attr title "packets sent to lower layer, vector(packetBytes)"
vector 26 RoutingScenario.node[1].wlan[0].mac.dcf frameSequenceActive:vector ETV
attr interpolationmode sample-hold
attr source count(frameSequenceStarted)-count(frameSequenceFinished)
attr title "frame sequence active, vector"
vector 27 RoutingScenario.node[1].wlan[0].radio transmissionState:vector ETV
attr interpolationmode sample-hold
attr source transmissionStateChanged
attr title "Radio transmission state, vector"
vector 28 RoutingScenario.node[1].wlan[0].mac.dcf packetSentToPeer:vector(packetBytes) ETV
attr interpolationmode none
attr title "packets sent, vector(packetBytes)"
vector 29 RoutingScenario.node[1].wlan[0].mac.dcf packetSentToPeerMulticast:vector(packetBytes) ETV
attr interpolationmode none
attr source ieee80211Multicast(packetSentToPeer)
attr title "packets sent: multicast, vector(packetBytes)"
vector 30 RoutingScenario.node[1].wlan[0].mac.dcf packetSentToPeerBroadcast:vector(packetBytes) ETV
attr interpolationmode none
attr source ieee80211Broadcast(packetSentToPeer)
attr title "packets sent: broadcast , vector(packetBytes)"
vector 31 RoutingScenario.node[1].wlan[0].mac.dcf packetSentToPeerWithoutRetry:vector(packetBytes) ETV
attr interpolationmode none
attr source ieee80211NotRetry(packetSentToPeer)
attr title "packets sent: without retry, vector(packetBytes)"
vector 32 RoutingScenario.node[1].wlan[0].mac.dcf.channelAccess.inProgressFrames queueingTime:vector ETV
attr interpolationmode none
attr source queueingTime(packetDequeued)
attr title "queueing times, vector"
vector 33 RoutingScenario.node[2].wlan[0].radio radioMode:vector ETV
attr interpolationmode sample-hold
attr source radioModeChanged
attr title "Radio mode, vector"
vector 34 RoutingScenario.node[2].wlan[0].radio radioChannel:vector ETV
attr interpolationmode sample-hold
attr source radioChannelChanged
attr title "Radio channel, vector"
vector 35 RoutingScenario.node[2].wlan[0].radio receptionState:vector ETV
attr interpolationmode sample-hold
attr source receptionStateChanged
attr title "Radio reception state, vector"
vector 36 RoutingScenario.node[2].wlan[0].mac.dcf.recoveryProcedure contentionWindowChanged:vector ETV
attr interpolationmode sample-hold
attr title "contention window, vector"
vector 37 RoutingScenario.node[2].app[0] packetSent:vector(packetBytes) ETV
attr interpolationmode none
attr source packetSent
attr title "packets sent, vector(packetBytes)"
vector 38 RoutingScenario.node[2].udp packetSent:vector(packetBytes) ETV
attr interpolationmode none
attr source packetSent
attr title "packets sent, vector(packetBytes)"
vector 39 RoutingScenario.node[2].wlan[0].mac packetReceivedFromUpper:vector(packetBytes) ETV
attr interpolationmode none
attr title "packets received from upper layer, vector(packetBytes)"
vector 40 RoutingScenario.node[2].wlan[0].mac.dcf.channelAccess.pendingQueue packetPushed:vector(packetBytes) ETV
attr interpolationmode none
attr title "packet pushed, vector(packetBytes)"
vector 41 RoutingScenario.node[2].wlan[0].mac.dcf.channelAccess.pendingQueue queueLength:vector ETV
attr interpolationmode sample-hold
attr source "count(packetPushed) - count(packetPopped) - count(packetRemoved) - count(packetDropped)"
attr title "queue length, vector"
vector 42 RoutingScenario.node[2].wlan[0].mac.dcf.channelAccess.contention backoffPeriodGenerated:vector ETV
attr interpolationmode none
attr title "backoff periods, vector"
vector 43 RoutingScenario.node[2].wlan[0].mac.dcf.channelAccess.contention backoffActive:vector ETV
attr interpolationmode sample-hold
attr source count(backoffStarted)-count(backoffStopped)
attr title "backoff active, vector"
vector 44 RoutingScenario.node[2].wlan[0].mac.dcf.channelAccess.pendingQueue packetPopped:vector(packetBytes) ETV
attr interpolationmode none
attr title "packet popped, vector(packetBytes)"
vector 45 RoutingScenario.node[2].wlan[0].mac.dcf.channelAccess.pendingQueue queueingTime:vector ETV
attr interpolationmode none
attr source queueingTime(packetPopped)
attr title "queueing times, vector"
attr unit s
vector 46 RoutingScenario.node[2].wlan[0].mac.dcf.channelAccess.inProgressFrames queueLength:vector ETV
attr interpolationmode sample-hold
attr source "count(packetEnqueued) - count(packetDequeued)"
attr title "queue length, vector"
vector 47 RoutingScenario.node[2].wlan[0].mac.dcf datarateSelected:vector ETV
attr interpolationmode none
attr title "datarates selected, vector"
vector 48 RoutingScenario.node[2].wlan[0].mac packetSentToLower:vector(packetBytes) ETV
attr interpolationmode none
attr title "packets sent to lower layer, vector(packetBytes)"
vector 49 RoutingScenario.node[2].wlan[0].mac.dcf frameSequenceActive:vector ETV
attr interpolationmode sample-hold
attr source count(frameSequenceStarted)-count(frameSequenceFinished)
attr title "frame sequence active, vector"
vector 50 RoutingScenario.node[2].wlan[0].radio transmissionState:vector ETV
attr interpolationmode sample-hold
attr source transmissionStateChanged
attr title "Radio transmission state, vector"
vector 51 RoutingScenario.node[2].wlan[0].mac.dcf packetSentToPeer:vector(packetBytes) ETV
attr interpolationmode none
attr title "packets sent, vector(packetBytes)"
vector 52 RoutingScenario.node[2].wlan[0].mac.dcf packetSentToPeerMulticast:vector(packetBytes) ETV
attr interpolationmode none
attr source ieee80211Multicast(packetSentToPeer)
attr title "packets sent: multicast, vector(packetBytes)"
vector 53 RoutingScenario.node[2].wlan[0].mac.dcf packetSentToPeerBroadcast:vector(packetBytes) ETV
attr interpolationmode none
attr source ieee80211Broadcast(packetSentToPeer)
attr title "packets sent: broadcast , vector(packetBytes)"
vector 54 RoutingScenario.node[2].wlan[0].mac.dcf packetSentToPeerWithoutRetry:vector(packetBytes) ETV
attr interpolationmode none
attr source ieee80211NotRetry(packetSentToPeer)
attr title "packets sent: without retry, vector(packetBytes)"
vector 55 RoutingScenario.node[2].wlan[0].mac.dcf.channelAccess.inProgressFrames queueingTime:vector ETV
attr interpolationmode none
attr source queueingTime(packetDequeued)
attr title "queueing times, vector"
vector 56 RoutingScenario.node[0].wlan[0].mac packetReceivedFromLower:vector(packetBytes) ETV
attr interpolationmode none
attr title "packets received from lower layer, vector(packetBytes)"
vector 57 RoutingScenario.node[0].wlan[0].mac.dcf packetReceivedFromPeer:vector(packetBytes) ETV
attr interpolationmode none
attr title "packets received, vector(packetBytes)"
vector 58 RoutingScenario.node[0].wlan[0].mac.dcf packetReceivedFromPeerMulticast:vector(packetBytes) ETV
attr interpolationmode none
attr source ieee80211Multicast(packetReceivedFromPeer)
attr title "packets received: multicast, vector(packetBytes)"
vector 59 RoutingScenario.node[0].wlan[0].mac.dcf packetReceivedFromPeerBroadcast:vector(packetBytes) ETV
attr interpolationmode none
attr source ieee80211Broadcast(packetReceivedFromPeer)
attr title "packets received: broadcast, vector(packetBytes)"
vector 60 RoutingScenario.node[0].wlan[0].mac.dcf packetReceivedFromPeerWithoutRetry:vector(packetBytes) ETV
attr interpolationmode none
attr source ieee80211NotRetry(packetReceivedFromPeer)
attr title "packets received: without retry, vector(packetBytes)"
vector 61 RoutingScenario.node[0].wlan[0].mac packetSentToUpper:vector(packetBytes) ETV
attr interpolationmode none
attr title "packets sent to upper layer, vector(packetBytes)"
vector 62 RoutingScenario.node[0].udp passedUpPk:vector(count) ETV
attr interpolationmode none
attr source packetSentToUpper
attr title "packets passed up, vector(count)"
vector 63 RoutingScenario.node[0].ipv4.arp arpRequestSent:vector(packetBytes) ETV
attr source arpRequestSent
attr title "ARP request sent, vector(packetBytes)"
vector 64 RoutingScenario.node[0].wlan[0].mac packetReceivedFromUpper:vector(packetBytes) ETV
attr interpolationmode none
attr title "packets received from upper layer, vector(packetBytes)"
vector 65 RoutingScenario.node[0].wlan[0].mac.dcf.channelAccess.pendingQueue packetPushed:vector(packetBytes) ETV
attr interpolationmode none
attr title "packet pushed, vector(packetBytes)"
vector 66 RoutingScenario.node[0].wlan[0].mac.dcf.channelAccess.pendingQueue queueLength:vector ETV
attr interpolationmode sample-hold
attr source "count(packetPushed) - count(packetPopped) - count(packetRemoved) - count(packetDropped)"
attr title "queue length, vector"
vector 67 RoutingScenario.node[0].wlan[0].mac.dcf.channelAccess.contention backoffPeriodGenerated:vector ETV
attr interpolationmode none
attr title "backoff periods, vector"
vector 68 RoutingScenario.node[0].wlan[0].mac.dcf.channelAccess.contention backoffActive:vector ETV
attr interpolationmode sample-hold
attr source count(backoffStarted)-count(backoffStopped)
attr title "backoff active, vector"
vector 69 RoutingScenario.node[0].wlan[0].mac.dcf.channelAccess.pendingQueue packetPopped:vector(packetBytes) ETV
attr interpolationmode none
attr title "packet popped, vector(packetBytes)"
vector 70 RoutingScenario.node[0].wlan[0].mac.dcf.channelAccess.pendingQueue queueingTime:vector ETV
attr interpolationmode none
attr source queueingTime(packetPopped)
attr title "queueing times, vector"
attr unit s
vector 71 RoutingScenario.node[0].wlan[0].mac.dcf.channelAccess.inProgressFrames queueLength:vector ETV
attr interpolationmode sample-hold
attr source "count(packetEnqueued) - count(packetDequeued)"
attr title "queue length, vector"
vector 72 RoutingScenario.node[0].wlan[0].mac.dcf datarateSelected:vector ETV
attr interpolationmode none
attr title "datarates selected, vector"
vector 73 RoutingScenario.node[0].wlan[0].mac packetSentToLower:vector(packetBytes) ETV
attr interpolationmode none
attr title "packets sent to lower layer, vector(packetBytes)"
vector 74 RoutingScenario.node[0].wlan[0].mac.dcf frameSequenceActive:vector ETV
attr interpolationmode sample-hold
attr source count(frameSequenceStarted)-count(frameSequenceFinished)
attr title "frame sequence active, vector"
vector 75 RoutingScenario.node[0].wlan[0].radio transmissionState:vector ETV
attr interpolationmode sample-hold
attr source transmissionStateChanged
attr title "Radio transmission state, vector"
vector 76 RoutingScenario.node[0].wlan[0].mac.dcf packetSentToPeer:vector(packetBytes) ETV
attr interpolationmode none
attr title "packets sent, vector(packetBytes)"
vector 77 RoutingScenario.node[0].wlan[0].mac.dcf packetSentToPeerMulticast:vector(packetBytes) ETV
attr interpolationmode none
attr source ieee80211Multicast(packetSentToPeer)
attr title "packets sent: multicast, vector(packetBytes)"
vector 78 RoutingScenario.node[0].wlan[0].mac.dcf packetSentToPeerBroadcast:vector(packetBytes) ETV
attr interpolationmode none
attr source ieee80211Broadcast(packetSentToPeer)
attr title "packets sent: broadcast , vector(packetBytes)"
vector 79 RoutingScenario.node[0].wlan[0].mac.dcf packetSentToPeerWithoutRetry:vector(packetBytes) ETV
attr interpolationmode none
attr source ieee80211NotRetry(packetSentToPeer)
attr title "packets sent: without retry, vector(packetBytes)"
vector 80 RoutingScenario.node[0].wlan[0].mac.dcf.channelAccess.inProgressFrames queueingTime:vector ETV
attr interpolationmode none
attr source queueingTime(packetDequeued)
attr title "queueing times, vector"
vector 81 RoutingScenario.node[2].wlan[0].mac packetReceivedFromLower:vector(packetBytes) ETV
attr interpolationmode none
attr title "packets received from lower layer, vector(packetBytes)"
vector 82 RoutingScenario.node[2].wlan[0].mac.dcf packetReceivedFromPeer:vector(packetBytes) ETV
attr interpolationmode none
attr title "packets received, vector(packetBytes)"
vector 83 RoutingScenario.node[2].wlan[0].mac.dcf packetReceivedFromPeerMulticast:vector(packetBytes) ETV
attr interpolationmode none
attr source ieee80211Multicast(packetReceivedFromPeer)
attr title "packets received: multicast, vector(packetBytes)"
vector 84 RoutingScenario.node[2].wlan[0].mac.dcf packetReceivedFromPeerBroadcast:vector(packetBytes) ETV
attr interpolationmode none
attr source ieee80211Broadcast(packetReceivedFromPeer)
attr title "packets received: broadcast, vector(packetBytes)"
vector 85 RoutingScenario.node[2].wlan[0].mac.dcf packetReceivedFromPeerWithoutRetry:vector(packetBytes) ETV
attr interpolationmode none
attr source ieee80211NotRetry(packetReceivedFromPeer)
attr title "packets received: without retry, vector(packetBytes)"
vector 86 RoutingScenario.node[2].wlan[0].mac packetSentToUpper:vector(packetBytes) ETV
attr interpolationmode none
attr title "packets sent to upper layer, vector(packetBytes)"
vector 87 RoutingScenario.node[2].ipv4.arp arpReplySent:vector(packetBytes) ETV
attr source arpReplySent
attr title "ARP replies sent, vector(packetBytes)"
vector 88 RoutingScenario.node[2].wlan[0].mac.dcf packetSentToPeerUnicast:vector(packetBytes) ETV
attr interpolationmode none
attr source ieee80211Unicast(packetSentToPeer)
attr title "packets sent: unicast, vector(packetBytes)"
vector 89 RoutingScenario.node[2].wlan[0].mac.rx nav:vector ETV
attr interpolationmode linear
attr source navChanged
attr title "network allocation vector, vector"
vector 90 RoutingScenario.node[0].wlan[0].mac.dcf packetReceivedFromPeerUnicast:vector(packetBytes) ETV
attr interpolationmode none
attr source ieee80211Unicast(packetReceivedFromPeer)
attr title "packets received: unicast, vector(packetBytes)"
vector 91 RoutingScenario.node[0].wlan[0].mac.dcf packetSentToPeerUnicast:vector(packetBytes) ETV
attr interpolationmode none
attr source ieee80211Unicast(packetSentToPeer)
attr title "packets sent: unicast, vector(packetBytes)"
vector 92 RoutingScenario.node[2].wlan[0].mac.dcf packetReceivedFromPeerUnicast:vector(packetBytes) ETV
attr interpolationmode none
attr source ieee80211Unicast(packetReceivedFromPeer)
attr title "packets received: unicast, vector(packetBytes)"
vector 93 RoutingScenario.node[0].wlan[0].mac.rx nav:vector ETV
attr interpolationmode linear
attr source navChanged
attr title "network allocation vector, vector"
vector 94 RoutingScenario.node[2].udp packetReceived:vector(packetBytes) ETV
attr interpolationmode none
attr source packetReceived
attr title "packets received, vector(packetBytes)"
vector 95 RoutingScenario.node[2].udp passedUpPk:vector(count) ETV
attr interpolationmode none
attr source packetSentToUpper
attr title "packets passed up, vector(count)"
vector 96 RoutingScenario.node[3].wlan[0].radio radioMode:vector ETV
attr interpolationmode sample-hold
attr source radioModeChanged
attr title "Radio mode, vector"
vector 97 RoutingScenario.node[3].wlan[0].radio radioChannel:vector ETV
attr interpolationmode sample-hold
attr source radioChannelChanged
attr title "Radio channel, vector"
vector 98 RoutingScenario.node[3].wlan[0].radio receptionState:vector ETV
attr interpolationmode sample-hold
attr source receptionStateChanged
attr title "Radio reception state, vector"
vector 99 RoutingScenario.node[3].wlan[0].mac.dcf.recoveryProcedure contentionWindowChanged:vector ETV
attr interpolationmode sample-hold
attr title "contention window, vector"
vector 100 RoutingScenario.node[3].app[0] packetSent:vector(packetBytes) ETV
attr interpolationmode none
attr source packetSent
attr title "packets sent, vector(packetBytes)"
vector 101 RoutingScenario.node[3].udp packetSent:vector(packetBytes) ETV
attr interpolationmode none
attr source packetSent
attr title "packets sent, vector(packetBytes)"
vector 102 RoutingScenario.node[3].wlan[0].mac packetReceivedFromUpper:vector(packetBytes) ETV
attr interpolationmode none
attr title "packets received from upper layer, vector(packetBytes)"
vector 103 RoutingScenario.node[3].wlan[0].mac.dcf.channelAccess.pendingQueue packetPushed:vector(packetBytes) ETV
attr interpolationmode none
attr title "packet pushed, vector(packetBytes)"
vector 104 RoutingScenario.node[3].wlan[0].mac.dcf.channelAccess.pendingQueue queueLength:vector ETV
attr interpolationmode sample-hold
attr source "count(packetPushed) - count(packetPopped) - count(packetRemoved) - count(packetDropped)"
attr title "queue length, vector"
vector 105 RoutingScenario.node[3].wlan[0].mac.dcf.channelAccess.contention backoffPeriodGenerated:vector ETV
attr interpolationmode none
attr title "backoff periods, vector"
vector 106 RoutingScenario.node[3].wlan[0].mac.dcf.channelAccess.contention backoffActive:vector ETV
attr interpolationmode sample-hold
attr source count(backoffStarted)-count(backoffStopped)
attr title "backoff active, vector"
vector 107 RoutingScenario.node[3].wlan[0].mac.dcf.channelAccess.pendingQueue packetPopped:vector(packetBytes) ETV
attr interpolationmode none
attr title "packet popped, vector(packetBytes)"
vector 108 RoutingScenario.node[3].wlan[0].mac.dcf.channelAccess.pendingQueue queueingTime:vector ETV
attr interpolationmode none
attr source queueingTime(packetPopped)
attr title "queueing times, vector"
attr unit s
vector 109 RoutingScenario.node[3].wlan[0].mac.dcf.channelAccess.inProgressFrames queueLength:vector ETV
attr interpolationmode sample-hold
attr source "count(packetEnqueued) - count(packetDequeued)"
attr title "queue length, vector"
vector 110 RoutingScenario.node[3].wlan[0].mac.dcf datarateSelected:vector ETV
attr interpolationmode none
attr title "datarates selected, vector"
vector 111 RoutingScenario.node[3].wlan[0].mac packetSentToLower:vector(packetBytes) ETV
attr interpolationmode none
attr title "packets sent to lower layer, vector(packetBytes)"
vector 112 RoutingScenario.node[3].wlan[0].mac.dcf frameSequenceActive:vector ETV
attr interpolationmode sample-hold
attr source count(frameSequenceStarted)-count(frameSequenceFinished)
attr title "frame sequence active, vector"
vector 113 RoutingScenario.node[3].wlan[0].radio transmissionState:vector ETV
attr interpolationmode sample-hold
attr source transmissionStateChanged
attr title "Radio transmission state, vector"
vector 114 RoutingScenario.node[3].wlan[0].mac.dcf packetSentToPeer:vector(packetBytes) ETV
attr interpolationmode none
attr title "packets sent, vector(packetBytes)"
vector 115 RoutingScenario.node[3].wlan[0].mac.dcf packetSentToPeerMulticast:vector(packetBytes) ETV
attr interpolationmode none
attr source ieee80211Multicast(packetSentToPeer)
attr title "packets sent: multicast, vector(packetBytes)"
vector 116 RoutingScenario.node[3].wlan[0].mac.dcf packetSentToPeerBroadcast:vector(packetBytes) ETV
attr interpolationmode none
attr source ieee80211Broadcast(packetSentToPeer)
attr title "packets sent: broadcast , vector(packetBytes)"
vector 117 RoutingScenario.node[3].wlan[0].mac.dcf packetSentToPeerWithoutRetry:vector(packetBytes) ETV
attr interpolationmode none
attr source ieee80211NotRetry(packetSentToPeer)
attr title "packets sent: without retry, vector(packetBytes)"
vector 118 RoutingScenario.node[3].wlan[0].mac.dcf.channelAccess.inProgressFrames queueingTime:vector ETV
attr interpolationmode none
attr source queueingTime(packetDequeued)
attr title "queueing times, vector"
vector 119 RoutingScenario.node[2].ipv4.arp arpRequestSent:vector(packetBytes) ETV
attr source arpRequestSent
attr title "ARP request sent, vector(packetBytes)"
vector 120 RoutingScenario.node[3].wlan[0].mac packetReceivedFromLower:vector(packetBytes) ETV
attr interpolationmode none
attr title "packets received from lower layer, vector(packetBytes)"
vector 121 RoutingScenario.node[3].wlan[0].mac.dcf packetReceivedFromPeer:vector(packetBytes) ETV
attr interpolationmode none
attr title "packets received, vector(packetBytes)"
vector 122 RoutingScenario.node[3].wlan[0].mac.dcf packetReceivedFromPeerMulticast:vector(packetBytes) ETV
attr interpolationmode none
attr source ieee80211Multicast(packetReceivedFromPeer)
attr title "packets received: multicast, vector(packetBytes)"
vector 123 RoutingScenario.node[3].wlan[0].mac.dcf packetReceivedFromPeerBroadcast:vector(packetBytes) ETV
attr interpolationmode none
attr source ieee80211Broadcast(packetReceivedFromPeer)
attr title "packets received: broadcast, vector(packetBytes)"
vector 124 RoutingScenario.node[3].wlan[0].mac.dcf packetReceivedFromPeerWithoutRetry:vector(packetBytes) ETV
attr interpolationmode none
attr source ieee80211NotRetry(packetReceivedFromPeer)
attr title "packets received: without retry, vector(packetBytes)"
vector 125 RoutingScenario.node[3].wlan[0].mac packetSentToUpper:vector(packetBytes) ETV
attr interpolationmode none
attr title "packets sent to upper layer, vector(packetBytes)"
vector 126 RoutingScenario.node[3].ipv4.arp arpReplySent:vector(packetBytes) ETV
attr source arpReplySent
attr title "ARP replies sent, vector(packetBytes)"
vector 127 RoutingScenario.node[3].wlan[0].mac.dcf packetSentToPeerUnicast:vector(packetBytes) ETV
attr interpolationmode none
attr source ieee80211Unicast(packetSentToPeer)
attr title "packets sent: unicast, vector(packetBytes)"
vector 128 RoutingScenario.node[3].wlan[0].mac.rx nav:vector ETV
attr interpolationmode linear
attr source navChanged
attr title "network allocation vector, vector"
vector 129 RoutingScenario.node[3].wlan[0].mac.dcf packetReceivedFromPeerUnicast:vector(packetBytes) ETV
attr interpolationmode none
attr source ieee80211Unicast(packetReceivedFromPeer)
attr title "packets received: unicast, vector(packetBytes)"
vector 130 RoutingScenario.node[0].wlan[0].mac.dcf packetDrop:vector(packetBytes) ETV
attr interpolationmode none
attr source packetDropped
attr title "packet drops, vector(packetBytes)"
vector 131 RoutingScenario.node[0].wlan[0].mac.dcf packetDropNotAddressedToUs:vector(packetBytes) ETV
attr interpolationmode none
attr source packetDropReasonIsNotAddressedToUs(packetDropped)
attr title "packet drops: not addressed to us, vector(packetBytes)"
vector 132 RoutingScenario.node[0].wlan[0].mac packetDrop:vector(packetBytes) ETV
attr interpolationmode none
attr source packetDropped
attr title "packet drops, vector(packetBytes)"
vector 133 RoutingScenario.node[0].wlan[0].mac packetDropNotAddressedToUs:vector(packetBytes) ETV
attr interpolationmode none
attr source packetDropReasonIsNotAddressedToUs(packetDropped)
attr title "packet drops: not addressed to us, vector(packetBytes)"
vector 134 RoutingScenario.node[3].udp packetReceived:vector(packetBytes) ETV
attr interpolationmode none
attr source packetReceived
attr title "packets received, vector(packetBytes)"
vector 135 RoutingScenario.node[3].udp passedUpPk:vector(count) ETV
attr interpolationmode none
attr source packetSentToUpper
attr title "packets passed up, vector(count)"
vector 136 RoutingScenario.node[3].wlan[0].mac.dcf packetDrop:vector(packetBytes) ETV
attr interpolationmode none
attr source packetDropped
attr title "packet drops, vector(packetBytes)"
vector 137 RoutingScenario.node[3].wlan[0].mac.dcf packetDropNotAddressedToUs:vector(packetBytes) ETV
attr interpolationmode none
attr source packetDropReasonIsNotAddressedToUs(packetDropped)
attr title "packet drops: not addressed to us, vector(packetBytes)"
vector 138 RoutingScenario.node[3].wlan[0].mac packetDrop:vector(packetBytes) ETV
attr interpolationmode none
attr source packetDropped
attr title "packet drops, vector(packetBytes)"
vector 139 RoutingScenario.node[3].wlan[0].mac packetDropNotAddressedToUs:vector(packetBytes) ETV
attr interpolationmode none
attr source packetDropReasonIsNotAddressedToUs(packetDropped)
attr title "packet drops: not addressed to us, vector(packetBytes)"
vector 140 RoutingScenario.node[2].wlan[0].mac packetDrop:vector(packetBytes) ETV
attr interpolationmode none
attr source packetDropped
attr title "packet drops, vector(packetBytes)"
vector 141 RoutingScenario.node[2].wlan[0].mac packetDropIncorrectlyReceived:vector(packetBytes) ETV
attr interpolationmode none
attr source packetDropReasonIsIncorrectlyReceived(packetDropped)
attr title "packet drops: incorrectly received, vector(packetBytes)"
vector 142 RoutingScenario.node[3].wlan[0].mac.dcf packetSentToPeerWithRetry:vector(packetBytes) ETV
attr interpolationmode none
attr source ieee80211Retry(packetSentToPeer)
attr title "packets sent: with retry, vector(packetBytes)"
vector 143 RoutingScenario.node[2].wlan[0].mac.dcf packetReceivedFromPeerWithRetry:vector(packetBytes) ETV
attr interpolationmode none
attr source ieee80211Retry(packetReceivedFromPeer)
attr title "packets received: with retry, vector(packetBytes)"
vector 144 RoutingScenario.node[0].wlan[0].mac.dcf packetSentToPeerWithRetry:vector(packetBytes) ETV
attr interpolationmode none
attr source ieee80211Retry(packetSentToPeer)
attr title "packets sent: with retry, vector(packetBytes)"
vector 145 RoutingScenario.node[0].wlan[0].mac.dcf packetDropRetryLimitReached:vector(packetBytes) ETV
attr interpolationmode none
attr source packetDropReasonIsRetryLimitReached(packetDropped)
attr title "packet drops: retry limit reached, vector(packetBytes)"
vector 146 RoutingScenario.node[0].wlan[0].mac packetDropRetryLimitReached:vector(packetBytes) ETV
attr interpolationmode none
attr source packetDropReasonIsRetryLimitReached(packetDropped)
attr title "packet drops: retry limit reached, vector(packetBytes)"
vector 147 RoutingScenario.node[0].wlan[0].mac packetDropIncorrectlyReceived:vector(packetBytes) ETV
attr interpolationmode none
attr source packetDropReasonIsIncorrectlyReceived(packetDropped)
attr title "packet drops: incorrectly received, vector(packetBytes)"
vector 148 RoutingScenario.node[2].wlan[0].mac.dcf.recipientMacDataService packetDropDuplicateDetected:vector(packetBytes) ETV
attr interpolationmode none
attr source packetDropReasonIsDuplicateDetected(packetDropped)
attr title "packet drops: duplicate detected, vector(packetBytes)"
vector 149 RoutingScenario.node[2].wlan[0].mac.dcf packetDrop:vector(packetBytes) ETV
attr interpolationmode none
attr source packetDropped
attr title "packet drops, vector(packetBytes)"
vector 150 RoutingScenario.node[2].wlan[0].mac packetDropDuplicateDetected:vector(packetBytes) ETV
attr interpolationmode none
attr source packetDropReasonIsDuplicateDetected(packetDropped)
attr title "packet drops: duplicate detected, vector(packetBytes)"
vector 151 RoutingScenario.node[4].wlan[0].radio radioMode:vector ETV
attr interpolationmode sample-hold
attr source radioModeChanged
attr title "Radio mode, vector"
vector 152 RoutingScenario.node[4].wlan[0].radio radioChannel:vector ETV
attr interpolationmode sample-hold
attr source radioChannelChanged
attr title "Radio channel, vector"
vector 153 RoutingScenario.node[4].wlan[0].radio receptionState:vector ETV
attr interpolationmode sample-hold
attr source receptionStateChanged
attr title "Radio reception state, vector"
vector 154 RoutingScenario.node[4].wlan[0].mac.dcf.recoveryProcedure contentionWindowChanged:vector ETV
attr interpolationmode sample-hold
attr title "contention window, vector"
vector 155 RoutingScenario.node[4].app[0] packetSent:vector(packetBytes) ETV
attr interpolationmode none
attr source packetSent
attr title "packets sent, vector(packetBytes)"
vector 156 RoutingScenario.node[4].udp packetSent:vector(packetBytes) ETV
attr interpolationmode none
attr source packetSent
attr title "packets sent, vector(packetBytes)"
vector 157 RoutingScenario.node[4].wlan[0].mac packetReceivedFromUpper:vector(packetBytes) ETV
attr interpolationmode none
attr title "packets received from upper layer, vector(packetBytes)"
vector 158 RoutingScenario.node[4].wlan[0].mac.dcf.channelAccess.pendingQueue packetPushed:vector(packetBytes) ETV
attr interpolationmode none
attr title "packet pushed, vector(packetBytes)"
vector 159 RoutingScenario.node[4].wlan[0].mac.dcf.channelAccess.pendingQueue queueLength:vector ETV
attr interpolationmode sample-hold
attr source "count(packetPushed) - count(packetPopped) - count(packetRemoved) - count(packetDropped)"
attr title "queue length, vector"
vector 160 RoutingScenario.node[4].wlan[0].mac.dcf.channelAccess.contention backoffPeriodGenerated:vector ETV
attr interpolationmode none
attr title "backoff periods, vector"
vector 161 RoutingScenario.node[4].wlan[0].mac.dcf.channelAccess.contention backoffActive:vector ETV
attr interpolationmode sample-hold
attr source count(backoffStarted)-count(backoffStopped)
attr title "backoff active, vector"
vector 162 RoutingScenario.node[4].wlan[0].mac.dcf.channelAccess.pendingQueue packetPopped:vector(packetBytes) ETV
attr interpolationmode none
attr title "packet popped, vector(packetBytes)"
vector 163 RoutingScenario.node[4].wlan[0].mac.dcf.channelAccess.pendingQueue queueingTime:vector ETV
attr interpolationmode none
attr source queueingTime(packetPopped)
attr title "queueing times, vector"
attr unit s
vector 164 RoutingScenario.node[4].wlan[0].mac.dcf.channelAccess.inProgressFrames queueLength:vector ETV
attr interpolationmode sample-hold
attr source "count(packetEnqueued) - count(packetDequeued)"
attr title "queue length, vector"
vector 165 RoutingScenario.node[4].wlan[0].mac.dcf datarateSelected:vector ETV
attr interpolationmode none
attr title "datarates selected, vector"
vector 166 RoutingScenario.node[4].wlan[0].mac packetSentToLower:vector(packetBytes) ETV
attr interpolationmode none
attr title "packets sent to lower layer, vector(packetBytes)"
vector 167 RoutingScenario.node[4].wlan[0].mac.dcf frameSequenceActive:vector ETV
attr interpolationmode sample-hold
attr source count(frameSequenceStarted)-count(frameSequenceFinished)
attr title "frame sequence active, vector"
vector 168 RoutingScenario.node[4].wlan[0].radio transmissionState:vector ETV
attr interpolationmode sample-hold
attr source transmissionStateChanged
attr title "Radio transmission state, vector"
vector 169 RoutingScenario.node[4].wlan[0].mac.dcf packetSentToPeer:vector(packetBytes) ETV
attr interpolationmode none
attr title "packets sent, vector(packetBytes)"
vector 170 RoutingScenario.node[4].wlan[0].mac.dcf packetSentToPeerMulticast:vector(packetBytes) ETV
attr interpolationmode none
attr source ieee80211Multicast(packetSentToPeer)
attr title "packets sent: multicast, vector(packetBytes)"
vector 171 RoutingScenario.node[4].wlan[0].mac.dcf packetSentToPeerBroadcast:vector(packetBytes) ETV
attr interpolationmode none
attr source ieee80211Broadcast(packetSentToPeer)
attr title "packets sent: broadcast , vector(packetBytes)"
vector 172 RoutingScenario.node[4].wlan[0].mac.dcf packetSentToPeerWithoutRetry:vector(packetBytes) ETV
attr interpolationmode none
attr source ieee80211NotRetry(packetSentToPeer)
attr title "packets sent: without retry, vector(packetBytes)"
vector 173 RoutingScenario.node[4].wlan[0].mac.dcf.channelAccess.inProgressFrames queueingTime:vector ETV
attr interpolationmode none
attr source queueingTime(packetDequeued)
attr title "queueing times, vector"
vector 174 RoutingScenario.node[3].wlan[0].mac packetDropIncorrectlyReceived:vector(packetBytes) ETV
attr interpolationmode none
attr source packetDropReasonIsIncorrectlyReceived(packetDropped)
attr title "packet drops: incorrectly received, vector(packetBytes)"
vector 175 RoutingScenario.node[5].wlan[0].radio radioMode:vector ETV
attr interpolationmode sample-hold
attr source radioModeChanged
attr title "Radio mode, vector"
vector 176 RoutingScenario.node[5].wlan[0].radio radioChannel:vector ETV
attr interpolationmode sample-hold
attr source radioChannelChanged
attr title "Radio channel, vector"
vector 177 RoutingScenario.node[5].wlan[0].radio receptionState:vector ETV
attr interpolationmode sample-hold
attr source receptionStateChanged
attr title "Radio reception state, vector"
vector 178 RoutingScenario.node[5].wlan[0].mac.dcf.recoveryProcedure contentionWindowChanged:vector ETV
attr interpolationmode sample-hold
attr title "contention window, vector"
vector 179 RoutingScenario.node[5].app[0] packetSent:vector(packetBytes) ETV
attr interpolationmode none
attr source packetSent
attr title "packets sent, vector(packetBytes)"
vector 180 RoutingScenario.node[5].udp packetSent:vector(packetBytes) ETV
attr interpolationmode none
attr source packetSent
attr title "packets sent, vector(packetBytes)"
vector 181 RoutingScenario.node[5].wlan[0].mac packetReceivedFromLower:vector(packetBytes) ETV
attr interpolationmode none
attr title "packets received from lower layer, vector(packetBytes)"
vector 182 RoutingScenario.node[5].wlan[0].mac.dcf packetDrop:vector(packetBytes) ETV
attr interpolationmode none
attr source packetDropped
attr title "packet drops, vector(packetBytes)"
vector 183 RoutingScenario.node[5].wlan[0].mac.dcf packetDropNotAddressedToUs:vector(packetBytes) ETV
attr interpolationmode none
attr source packetDropReasonIsNotAddressedToUs(packetDropped)
attr title "packet drops: not addressed to us, vector(packetBytes)"
vector 184 RoutingScenario.node[5].wlan[0].mac packetDrop:vector(packetBytes) ETV
attr interpolationmode none
attr source packetDropped
attr title "packet drops, vector(packetBytes)"
vector 185 RoutingScenario.node[5].wlan[0].mac packetDropNotAddressedToUs:vector(packetBytes) ETV
attr interpolationmode none
attr source packetDropReasonIsNotAddressedToUs(packetDropped)
attr title "packet drops: not addressed to us, vector(packetBytes)"
vector 186 RoutingScenario.node[5].wlan[0].mac.rx nav:vector ETV
attr interpolationmode linear
attr source navChanged
attr title "network allocation vector, vector"
vector 187 RoutingScenario.node[5].wlan[0].mac packetReceivedFromUpper:vector(packetBytes) ETV
attr interpolationmode none
attr title "packets received from upper layer, vector(packetBytes)"
vector 188 RoutingScenario.node[5].wlan[0].mac.dcf.channelAccess.pendingQueue packetPushed:vector(packetBytes) ETV
attr interpolationmode none
attr title "packet pushed, vector(packetBytes)"
vector 189 RoutingScenario.node[5].wlan[0].mac.dcf.channelAccess.pendingQueue queueLength:vector ETV
attr interpolationmode sample-hold
attr source "count(packetPushed) - count(packetPopped) - count(packetRemoved) - count(packetDropped)"
attr title "queue length, vector"
vector 190 RoutingScenario.node[5].wlan[0].mac.dcf.channelAccess.contention backoffPeriodGenerated:vector ETV
attr interpolationmode none
attr title "backoff periods, vector"
vector 191 RoutingScenario.node[5].wlan[0].mac.dcf.channelAccess.contention backoffActive:vector ETV
attr interpolationmode sample-hold
attr source count(backoffStarted)-count(backoffStopped)
attr title "backoff active, vector"
vector 192 RoutingScenario.node[5].wlan[0].mac.dcf.channelAccess.pendingQueue packetPopped:vector(packetBytes) ETV
attr interpolationmode none
attr title "packet popped, vector(packetBytes)"
vector 193 RoutingScenario.node[5].wlan[0].mac.dcf.channelAccess.pendingQueue queueingTime:vector ETV
attr interpolationmode none
attr source queueingTime(packetPopped)
attr title "queueing times, vector"
attr unit s
vector 194 RoutingScenario.node[5].wlan[0].mac.dcf.channelAccess.inProgressFrames queueLength:vector ETV
attr interpolationmode sample-hold
attr source "count(packetEnqueued) - count(packetDequeued)"
attr title "queue length, vector"
vector 195 RoutingScenario.node[5].wlan[0].mac.dcf datarateSelected:vector ETV
attr interpolationmode none
attr title "datarates selected, vector"
vector 196 RoutingScenario.node[5].wlan[0].mac packetSentToLower:vector(packetBytes) ETV
attr interpolationmode none
attr title "packets sent to lower layer, vector(packetBytes)"
vector 197 RoutingScenario.node[5].wlan[0].mac.dcf frameSequenceActive:vector ETV
attr interpolationmode sample-hold
attr source count(frameSequenceStarted)-count(frameSequenceFinished)
attr title "frame sequence active, vector"
vector 198 RoutingScenario.node[5].wlan[0].radio transmissionState:vector ETV
attr interpolationmode sample-hold
attr source transmissionStateChanged
attr title "Radio transmission state, vector"
vector 199 RoutingScenario.node[5].wlan[0].mac.dcf packetSentToPeer:vector(packetBytes) ETV
attr interpolationmode none
attr title "packets sent, vector(packetBytes)"
vector 200 RoutingScenario.node[5].wlan[0].mac.dcf packetSentToPeerMulticast:vector(packetBytes) ETV
attr interpolationmode none
attr source ieee80211Multicast(packetSentToPeer)
attr title "packets sent: multicast, vector(packetBytes)"
vector 201 RoutingScenario.node[5].wlan[0].mac.dcf packetSentToPeerBroadcast:vector(packetBytes) ETV
attr interpolationmode none
attr source ieee80211Broadcast(packetSentToPeer)
attr title "packets sent: broadcast , vector(packetBytes)"
vector 202 RoutingScenario.node[5].wlan[0].mac.dcf packetSentToPeerWithoutRetry:vector(packetBytes) ETV
attr interpolationmode none
attr source ieee80211NotRetry(packetSentToPeer)
attr title "packets sent: without retry, vector(packetBytes)"
vector 203 RoutingScenario.node[5].wlan[0].mac.dcf.channelAccess.inProgressFrames queueingTime:vector ETV
attr interpolationmode none
attr source queueingTime(packetDequeued)
attr title "queueing times, vector"
vector 204 RoutingScenario.node[4].wlan[0].mac packetReceivedFromLower:vector(packetBytes) ETV
attr interpolationmode none
attr title "packets received from lower layer, vector(packetBytes)"
vector 205 RoutingScenario.node[4].wlan[0].mac.dcf packetReceivedFromPeer:vector(packetBytes) ETV
attr interpolationmode none
attr title "packets received, vector(packetBytes)"
vector 206 RoutingScenario.node[4].wlan[0].mac.dcf packetReceivedFromPeerMulticast:vector(packetBytes) ETV
attr interpolationmode none
attr source ieee80211Multicast(packetReceivedFromPeer)
attr title "packets received: multicast, vector(packetBytes)"
vector 207 RoutingScenario.node[4].wlan[0].mac.dcf packetReceivedFromPeerBroadcast:vector(packetBytes) ETV
attr interpolationmode none
attr source ieee80211Broadcast(packetReceivedFromPeer)
attr title "packets received: broadcast, vector(packetBytes)"
vector 208 RoutingScenario.node[4].wlan[0].mac.dcf packetReceivedFromPeerWithoutRetry:vector(packetBytes) ETV
attr interpolationmode none
attr source ieee80211NotRetry(packetReceivedFromPeer)
attr title "packets received: without retry, vector(packetBytes)"
vector 209 RoutingScenario.node[4].wlan[0].mac packetSentToUpper:vector(packetBytes) ETV
attr interpolationmode none
attr title "packets sent to upper layer, vector(packetBytes)"
vector 210 RoutingScenario.node[4].udp packetReceived:vector(packetBytes) ETV
attr interpolationmode none
attr source packetReceived
attr title "packets received, vector(packetBytes)"
vector 211 RoutingScenario.node[4].udp passedUpPk:vector(count) ETV
attr interpolationmode none
attr source packetSentToUpper
attr title "packets passed up, vector(count)"
vector 212 RoutingScenario.node[1].wlan[0].mac packetReceivedFromLower:vector(packetBytes) ETV
attr interpolationmode none
attr title "packets received from lower layer, vector(packetBytes)"
vector 213 RoutingScenario.node[1].wlan[0].mac.dcf packetReceivedFromPeer:vector(packetBytes) ETV
attr interpolationmode none
attr title "packets received, vector(packetBytes)"
vector 214 RoutingScenario.node[1].wlan[0].mac.dcf packetReceivedFromPeerMulticast:vector(packetBytes) ETV
attr interpolationmode none
attr source ieee80211Multicast(packetReceivedFromPeer)
attr title "packets received: multicast, vector(packetBytes)"
vector 215 RoutingScenario.node[1].wlan[0].mac.dcf packetReceivedFromPeerBroadcast:vector(packetBytes) ETV
attr interpolationmode none
attr source ieee80211Broadcast(packetReceivedFromPeer)
attr title "packets received: broadcast, vector(packetBytes)"
vector 216 RoutingScenario.node[1].wlan[0].mac.dcf packetReceivedFromPeerWithoutRetry:vector(packetBytes) ETV
attr interpolationmode none
attr source ieee80211NotRetry(packetReceivedFromPeer)
attr title "packets received: without retry, vector(packetBytes)"
vector 217 RoutingScenario.node[1].wlan[0].mac packetSentToUpper:vector(packetBytes) ETV
attr interpolationmode none
attr title "packets sent to upper layer, vector(packetBytes)"
vector 218 RoutingScenario.node[1].udp packetReceived:vector(packetBytes) ETV
attr interpolationmode none
attr source packetReceived
attr title "packets received, vector(packetBytes)"
vector 219 RoutingScenario.node[1].udp passedUpPk:vector(count) ETV
attr interpolationmode none
attr source packetSentToUpper
attr title "packets passed up, vector(count)"
vector 220 RoutingScenario.node[5].wlan[0].mac.dcf packetReceivedFromPeer:vector(packetBytes) ETV
attr interpolationmode none
attr title "packets received, vector(packetBytes)"
vector 221 RoutingScenario.node[5].wlan[0].mac.dcf packetReceivedFromPeerMulticast:vector(packetBytes) ETV
attr interpolationmode none
attr source ieee80211Multicast(packetReceivedFromPeer)
attr title "packets received: multicast, vector(packetBytes)"
vector 222 RoutingScenario.node[5].wlan[0].mac.dcf packetReceivedFromPeerBroadcast:vector(packetBytes) ETV
attr interpolationmode none
attr source ieee80211Broadcast(packetReceivedFromPeer)
attr title "packets received: broadcast, vector(packetBytes)"
vector 223 RoutingScenario.node[5].wlan[0].mac.dcf packetReceivedFromPeerWithoutRetry:vector(packetBytes) ETV
attr interpolationmode none
attr source ieee80211NotRetry(packetReceivedFromPeer)
attr title "packets received: without retry, vector(packetBytes)"
vector 224 RoutingScenario.node[5].wlan[0].mac packetSentToUpper:vector(packetBytes) ETV
attr interpolationmode none
attr title "packets sent to upper layer, vector(packetBytes)"
vector 225 RoutingScenario.node[5].ipv4.arp arpReplySent:vector(packetBytes) ETV
attr source arpReplySent
attr title "ARP replies sent, vector(packetBytes)"
vector 226 RoutingScenario.node[5].wlan[0].mac.dcf packetSentToPeerUnicast:vector(packetBytes) ETV
attr interpolationmode none
attr source ieee80211Unicast(packetSentToPeer)
attr title "packets sent: unicast, vector(packetBytes)"
vector 227 RoutingScenario.node[4].wlan[0].mac packetDrop:vector(packetBytes) ETV
attr interpolationmode none
attr source packetDropped
attr title "packet drops, vector(packetBytes)"
vector 228 RoutingScenario.node[4].wlan[0].mac packetDropIncorrectlyReceived:vector(packetBytes) ETV
attr interpolationmode none
attr source packetDropReasonIsIncorrectlyReceived(packetDropped)
attr title "packet drops: incorrectly received, vector(packetBytes)"
vector 229 RoutingScenario.node[1].wlan[0].mac packetDrop:vector(packetBytes) ETV
attr interpolationmode none
attr source packetDropped
attr title "packet drops, vector(packetBytes)"
vector 230 RoutingScenario.node[1].wlan[0].mac packetDropIncorrectlyReceived:vector(packetBytes) ETV
attr interpolationmode none
attr source packetDropReasonIsIncorrectlyReceived(packetDropped)
attr title "packet drops: incorrectly received, vector(packetBytes)"
vector 231 RoutingScenario.node[5].wlan[0].mac.dcf packetSentToPeerWithRetry:vector(packetBytes) ETV
attr interpolationmode none
attr source ieee80211Retry(packetSentToPeer)
attr title "packets sent: with retry, vector(packetBytes)"
vector 232 RoutingScenario.node[5].wlan[0].mac packetDropIncorrectlyReceived:vector(packetBytes) ETV
attr interpolationmode none
attr source packetDropReasonIsIncorrectlyReceived(packetDropped)
attr title "packet drops: incorrectly received, vector(packetBytes)"
vector 233 RoutingScenario.node[4].wlan[0].mac.rx nav:vector ETV
attr interpolationmode linear
attr source navChanged
attr title "network allocation vector, vector"
vector 234 RoutingScenario.node[4].wlan[0].mac.dcf packetDrop:vector(packetBytes) ETV
attr interpolationmode none
attr source packetDropped
attr title "packet drops, vector(packetBytes)"
vector 235 RoutingScenario.node[4].wlan[0].mac.dcf packetDropNotAddressedToUs:vector(packetBytes) ETV
attr interpolationmode none
attr source packetDropReasonIsNotAddressedToUs(packetDropped)
attr title "packet drops: not addressed to us, vector(packetBytes)"
vector 236 RoutingScenario.node[4].wlan[0].mac packetDropNotAddressedToUs:vector(packetBytes) ETV
attr interpolationmode none
attr source packetDropReasonIsNotAddressedToUs(packetDropped)
attr title "packet drops: not addressed to us, vector(packetBytes)"
vector 237 RoutingScenario.node[1].wlan[0].mac.rx nav:vector ETV
attr interpolationmode linear
attr source navChanged
attr title "network allocation vector, vector"
vector 238 RoutingScenario.node[1].wlan[0].mac.dcf packetDrop:vector(packetBytes) ETV
attr interpolationmode none
attr source packetDropped
attr title "packet drops, vector(packetBytes)"
vector 239 RoutingScenario.node[1].wlan[0].mac.dcf packetDropNotAddressedToUs:vector(packetBytes) ETV
attr interpolationmode none
attr source packetDropReasonIsNotAddressedToUs(packetDropped)
attr title "packet drops: not addressed to us, vector(packetBytes)"
vector 240 RoutingScenario.node[1].wlan[0].mac packetDropNotAddressedToUs:vector(packetBytes) ETV
attr interpolationmode none
attr source packetDropReasonIsNotAddressedToUs(packetDropped)
attr title "packet drops: not addressed to us, vector(packetBytes)"
vector 241 RoutingScenario.node[2].wlan[0].mac.dcf packetDropNotAddressedToUs:vector(packetBytes) ETV
attr interpolationmode none
attr source packetDropReasonIsNotAddressedToUs(packetDropped)
attr title "packet drops: not addressed to us, vector(packetBytes)"
vector 242 RoutingScenario.node[2].wlan[0].mac packetDropNotAddressedToUs:vector(packetBytes) ETV
attr interpolationmode none
attr source packetDropReasonIsNotAddressedToUs(packetDropped)
attr title "packet drops: not addressed to us, vector(packetBytes)"
vector 243 RoutingScenario.node[0].wlan[0].mac.dcf packetReceivedFromPeerWithRetry:vector(packetBytes) ETV
attr interpolationmode none
attr source ieee80211Retry(packetReceivedFromPeer)
attr title "packets received: with retry, vector(packetBytes)"
vector 244 RoutingScenario.node[5].wlan[0].mac.dcf packetReceivedFromPeerUnicast:vector(packetBytes) ETV
attr interpolationmode none
attr source ieee80211Unicast(packetReceivedFromPeer)
attr title "packets received: unicast, vector(packetBytes)"
vector 245 RoutingScenario.node[5].udp packetReceived:vector(packetBytes) ETV
attr interpolationmode none
attr source packetReceived
attr title "packets received, vector(packetBytes)"
vector 246 RoutingScenario.node[5].udp passedUpPk:vector(count) ETV
attr interpolationmode none
attr source packetSentToUpper
attr title "packets passed up, vector(count)"
vector 247 RoutingScenario.node[5].wlan[0].mac.dcf packetReceivedFromPeerWithRetry:vector(packetBytes) ETV
attr interpolationmode none
attr source ieee80211Retry(packetReceivedFromPeer)
attr title "packets received: with retry, vector(packetBytes)"
vector 248 RoutingScenario.node[5].wlan[0].mac.dcf.recipientMacDataService packetDropDuplicateDetected:vector(packetBytes) ETV
attr interpolationmode none
attr source packetDropReasonIsDuplicateDetected(packetDropped)
attr title "packet drops: duplicate detected, vector(packetBytes)"
vector 249 RoutingScenario.node[5].wlan[0].mac packetDropDuplicateDetected:vector(packetBytes) ETV
attr interpolationmode none
attr source packetDropReasonIsDuplicateDetected(packetDropped)
attr title "packet drops: duplicate detected, vector(packetBytes)"
0	2	0.1	0
0	2	0.1	0
0	2	0.1	2
0	1365	2.101188168813	3
0	1370	2.101276168813	2
0	1394	2.101560194383	3
0	1400	2.101616194383	2
0	1406	2.101713194383	3
0	1411	2.101809194383	2
0	1450	2.102819219953	3
0	1456	2.102875219953	2
0	1462	2.102946219953	3
0	1467	2.103050219953	2
0	1512	2.111379579324	3
0	1518	2.111435579324	2
0	1524	2.111519579324	3
0	1531	2.111623579324	2
0	1596	2.122570921587	3
0	1602	2.122626921587	2
0	1608	2.122736921587	3
0	1613	2.122840921587	2
0	1656	2.130704545612	3
0	1662	2.130760545612	2
0	1668	2.130909545612	3
0	1673	2.131013545612	2
0	1720	2.138694655452	3
0	1726	2.138750655452	2
0	1732	2.138860655452	3
0	1737	2.138964655452	2
0	1796	2.146967869906	3
0	1802	2.147023869906	2
0	1808	2.147172869906	3
0	1813	2.147276869906	2
0	1868	2.170760856761	3
0	1874	2.170816856761	2
0	1880	2.170887856761	3
0	1885	2.170991856761	2
0	1932	2.187568965125	3
0	1938	2.187624965125	2
0	1944	2.187721965125	3
0	1949	2.187825965125	2
0	1998	2.191336939902	3
0	2004	2.191392939902	2
0	2010	2.191450939902	3
0	2015	2.191554939902	2
0	2058	2.195580098805	3
0	2070	2.195636098805	2
0	2076	2.195707098805	3
0	2081	2.195811098805	2
0	2124	2.197123061652	3
0	2130	2.197179061652	2
0	2136	2.197432061652	3
0	2141	2.197536061652	2
0	2205	2.207228696545	3
0	2211	2.207284696545	2
0	2217	2.207485696545	3
0	2223	2.207589696545	2
0	2270	2.213588235496	3
0	2276	2.213644235496	2
0	2282	2.213858235496	3
0	2287	2.213962235496	2
0	2334	2.217899762358	3
0	2340	2.217955762358	2
0	2346	2.218052762358	3
0	2351	2.218156762358	2
0	2429	2.249178623986	3
0	2435	2.249234623986	2
0	2441	2.249292623986	3
0	2446	2.249396623986	2
0	2489	2.25264077651	3
0	2495	2.25269677651	2
0	2501	2.25280677651	3
0	2506	2.25291077651	2
0	2569	2.272596365878	3
0	2575	2.272652365878	2
0	2581	2.272866365878	3
0	2586	2.272970365878	2
0	2629	2.273902389966	3
0	2635	2.273958389966	2
0	2641	2.274120389966	3
0	2646	2.274224389966	2
0	2706	2.284570725345	3
0	2712	2.284626725345	2
0	2718	2.284853725345	3
0	2723	2.284957725345	2
0	2775	2.293493723646	3
0	2781	2.293549723646	2
0	2787	2.293750723646	3
0	2792	2.293854723646	2
0	2868	2.31453830059	3
0	2874	2.31459430059	2
0	2880	2.31469130059	3
0	2885	2.31479530059	2
0	2933	2.316895843221	3
0	2939	2.316951843221	2
0	2945	2.317152843221	3
0	2950	2.317256843221	2
0	2988	2.318227869717	3
0	2994	2.318283869717	2
0	3000	2.318341869717	3
0	3005	2.318445869717	2
0	3048	2.322573348463	3
0	3054	2.322629348463	2
0	3060	2.322804348463	3
0	3065	2.322908348463	2
0	3148	2.353682731768	3
0	3154	2.353738731768	2
0	3160	2.353952731768	3
0	3171	2.354056731768	2
0	3214	2.355978284319	3
0	3220	2.356034284319	2
0	3226	2.356144284319	3
0	3231	2.356248284319	2
0	3284	2.365733064653	3
0	3290	2.365789064653	2
0	3297	2.366016064653	3
0	3303	2.366120064653	2
0	3363	2.375031173207	3
0	3369	2.375087173207	2
0	3378	2.375314173207	3
0	3383	2.375418173207	2
0	3430	2.376694215064	3
0	3436	2.376750215064	2
0	3442	2.376925215064	3
0	3452	2.377029215064	2
0	3490	2.37809124156	3
0	3496	2.37814724156	2
0	3502	2.37828324156	3
0	3507	2.37838724156	2
0	3581	2.402893255494	3
0	3587	2.402949255494	2
0	3593	2.403176255494	3
0	3598	2.403280255494	2
0	3659	2.418008949541	3
0	3665	2.418064949541	2
0	3687	2.418986978467	3
0	3693	2.419042978467	2
0	3699	2.419204978467	3
0	3704	2.419308978467	2
0	3726	2.419626007393	3
0	3731	2.419730007393	2
0	3809	2.456505782499	3
0	3815	2.456561782499	2
0	3821	2.456645782499	3
0	3826	2.456749782499	2
0	3875	2.458564246027	3
0	3881	2.458620246027	2
0	3887	2.458847246027	3
0	3892	2.458951246027	2
0	3935	2.460065274953	3
0	3941	2.460121274953	2
0	3947	2.460348274953	3
0	3952	2.460452274953	2
0	4034	2.492882157813	3
0	4040	2.492938157813	2
0	4046	2.492996157813	3
0	4051	2.493100157813	2
0	4104	2.501989736323	3
0	4110	2.502045736323	2
0	4116	2.502168736323	3
0	4121	2.502272736323	2
0	4173	2.503308767687	3
0	4179	2.503364767687	2
0	4185	2.503500767687	3
0	4190	2.503604767687	2
0	4228	2.504614799051	3
0	4234	2.504670799051	2
0	4240	2.504767799051	3
0	4245	2.504871799051	2
0	4288	2.507104120617	3
0	4294	2.507160120617	2
0	4300	2.507374120617	3
0	4305	2.507478120617	2
0	4374	2.515971160856	3
0	4380	2.516027160856	2
0	4386	2.516150160856	3
0	4391	2.516254160856	2
0	4431	2.51726419222	3
0	4437	2.51732019222	2
0	4445	2.51757319222	3
0	4450	2.51767719222	2
0	4496	2.519870561538	3
0	4502	2.519926561538	2
0	4508	2.520088561538	3
0	4513	2.520192561538	2
0	4582	2.52797483198	3
0	4588	2.52803083198	2
0	4594	2.52817983198	3
0	4599	2.52828383198	2
0	4649	2.53242877263	3
0	4655	2.53248477263	2
0	4661	2.53269877263	3
0	4666	2.53280277263	2
0	4709	2.53793710776	3
0	4716	2.53799310776	2
0	4723	2.53812910776	3
0	4728	2.53823310776	2
0	4816	2.557361040557	3
0	4822	2.557417040557	2
0	4828	2.557618040557	3
0	4833	2.557722040557	2
0	4876	2.565623207214	3
0	4882	2.565679207214	2
0	4888	2.565919207214	3
0	4893	2.566023207214	2
0	4959	2.586372642866	3
0	4965	2.586428642866	2
0	4971	2.586525642866	3
0	4976	2.586629642866	2
0	5025	2.592453321433	3
0	5031	2.592509321433	2
0	5037	2.592658321433	3
0	5042	2.592762321433	2
0	5121	2.625683056456	3
0	5127	2.625739056456	2
0	5133	2.625966056456	3
0	5138	2.626070056456	2
0	5187	2.63375165128	3
0	5193	2.63380765128	2
0	5199	2.63395665128	3
0	5204	2.63406065128	2
0	5282	2.663579224292	3
0	5288	2.663635224292	2
0	5294	2.663732224292	3
0	5299	2.663836224292	2
0	5348	2.671991770404	3
0	5354	2.672047770404	2
0	5360	2.672105770404	3
0	5365	2.672209770404	2
0	5415	2.677195748668	3
0	5421	2.677251748668	2
0	5427	2.677439748668	3
0	5432	2.677543748668	2
0	5475	2.679896258594	3
0	5481	2.679952258594	2
0	5487	2.680049258594	3
0	5492	2.680153258594	2
0	5555	2.688694962658	3
0	5561	2.688750962658	2
0	5567	2.688899962658	3
0	5572	2.689003962658	2
0	5642	2.703463590122	3
0	5648	2.703519590122	2
0	5654	2.703642590122	3
0	5659	2.703746590122	2
0	5702	2.704730626448	3
0	5708	2.704786626448	2
0	5735	2.705734662774	3
0	5741	2.705790662774	2
0	5747	2.705861662774	3
0	5752	2.705965662774	2
0	5774	2.7061266991	3
0	5779	2.7062306991	2
0	5866	2.752321566476	3
0	5872	2.752377566476	2
0	5894	2.753312602802	3
0	5900	2.753368602802	2
0	5906	2.753439602802	3
0	5911	2.753543602802	2
0	5933	2.753821639128	3
0	5938	2.753925639128	2
0	5989	2.761090894866	3
0	5995	2.761146894866	2
0	6017	2.762068931192	3
0	6023	2.762124931192	2
0	6029	2.762273931192	3
0	6035	2.762377931192	2
0	6058	2.762525967518	3
0	6063	2.762629967518	2
0	6112	2.766282178426	3
0	6118	2.766338178426	2
0	6124	2.766539178426	3
0	6129	2.766643178426	2
0	6178	2.768497568901	3
0	6184	2.768553568901	2
0	6190	2.768637568901	3
0	6195	2.768741568901	2
0	6252	2.773302147279	3
0	6258	2.773358147279	2
0	6264	2.773416147279	3
0	6269	2.773520147279	2
0	6326	2.779171448206	3
0	6332	2.779227448206	2
0	6338	2.779441448206	3
0	6343	2.779545448206	2
0	6401	2.805975127711	3
0	6407	2.806031127711	2
0	6413	2.806102127711	3
0	6418	2.806206127711	2
0	6464	2.809795843904	3
0	6470	2.809851843904	2
0	6476	2.809987843904	3
0	6481	2.810091843904	2
0	6550	2.82189200639	3
0	6556	2.82194800639	2
0	6562	2.82217500639	3
0	6567	2.82227900639	2
0	6610	2.827269062011	3
0	6616	2.827325062011	2
0	6622	2.827448062011	3
0	6627	2.827552062011	2
0	6670	2.829270611108	3
0	6676	2.829326611108	2
0	6682	2.829397611108	3
0	6687	2.829501611108	2
0	6760	2.857666094274	3
0	6766	2.857722094274	2
0	6772	2.857936094274	3
0	6777	2.858040094274	2
0	6839	2.873120777143	3
0	6845	2.873176777143	2
0	6851	2.873299777143	3
0	6856	2.873403777143	2
0	6916	2.902672509689	3
0	6922	2.902728509689	2
0	6928	2.902786509689	3
0	6933	2.902890509689	2
0	6989	2.915222413202	3
0	6995	2.915278413202	2
0	7001	2.915427413202	3
0	7006	2.915531413202	2
0	7083	2.971939155564	3
0	7089	2.971995155564	2
0	7095	2.972144155564	3
0	7100	2.972248155564	2
0	7143	2.9767145363	3
0	7149	2.9767705363	2
0	7155	2.9768285363	3
0	7160	2.9769325363	2
0	7207	2.986154733686	3
0	7213	2.986210733686	2
0	7225	2.986424733686	3
0	7230	2.986528733686	2
0	7291	2.991878706697	3
0	7297	2.991934706697	2
0	7324	2.992882748233	3
0	7330	2.992938748233	2
0	7352	2.993847789769	3
0	7358	2.993903789769	2
0	7364	2.993974789769	3
0	7369	2.994078789769	2
0	7394	2.994382831305	3
0	7399	2.994486831305	2
0	7421	2.994816872841	3
0	7426	2.994920872841	2
0	7473	2.99876076757	3
0	7479	2.99881676757	2
0	7485	2.99888776757	3
0	7490	2.99899176757	2
0	7571	3.009173830607	3
0	7577	3.009229830607	2
0	7583	3.009313830607	3
0	7588	3.009417830607	2
0	7644	3.02096068882	3
0	7650	3.02101668882	2
0	7656	3.02121768882	3
0	7661	3.02132168882	2
0	7704	3.027793922186	3
0	7710	3.027849922186	2
0	7716	3.028089922186	3
0	7721	3.028193922186	2
0	7768	3.035518619856	3
0	7774	3.035574619856	2
0	7780	3.035645619856	3
0	7785	3.035749619856	2
0	7841	3.042364691713	3
0	7847	3.042420691713	2
0	7853	3.042543691713	3
0	7858	3.042647691713	2
0	7905	3.047002621898	3
0	7911	3.047058621898	2
0	7917	3.047259621898	3
0	7922	3.047363621898	2
0	7988	3.057917470356	3
0	7994	3.057973470356	2
0	8000	3.058096470356	3
0	8005	3.058200470356	2
0	8048	3.062080616954	3
0	8054	3.062136616954	2
0	8060	3.062298616954	3
0	8065	3.062402616954	2
0	8131	3.093276695898	3
0	8137	3.093332695898	2
0	8143	3.093546695898	3
0	8148	3.093650695898	2
0	8354	3.104880445516	3
0	8362	3.104936445516	2
0	8374	3.105059445516	3
0	8384	3.105163445516	2
0	8455	3.107992002222	3
0	8463	3.108048002222	2
0	8544	3.11633447094	3
0	8552	3.11639047094	2
0	8593	3.124886274012	3
0	8601	3.124942274012	2
0	8608	3.125117274012	3
0	8614	3.125221274012	2
0	8684	3.139264090666	3
0	8692	3.139320090666	2
0	8699	3.139443090666	3
0	8705	3.139547090666	2
0	8761	3.146057645286	3
0	8769	3.146113645286	2
0	8776	3.146314645286	3
0	8782	3.146418645286	2
0	8832	3.147555162393	3
0	8840	3.147611162393	2
0	8847	3.147760162393	3
0	8853	3.147864162393	2
0	8916	3.158245408016	3
0	8924	3.158301408016	2
0	8931	3.158554408016	3
0	8937	3.158658408016	2
0	9016	3.161139252676	3
0	9024	3.161195252676	2
0	9078	3.180863783386	3
0	9086	3.180919783386	2
0	9093	3.181042783386	3
0	9099	3.181146783386	2
0	9184	3.204635248347	3
0	9192	3.204691248347	2
0	9199	3.204775248347	3
0	9205	3.204879248347	2
0	9255	3.206112573806	3
0	9263	3.206168573806	2
0	9270	3.206369573806	3
0	9276	3.206473573806	2
0	9361	3.210442462669	3
0	9369	3.210498462669	2
0	9468	3.233713877676	3
0	9476	3.233769877676	2
0	9551	3.245894619933	3
0	9559	3.245950619933	2
0	9620	3.247978170785	3
0	9628	3.248034170785	2
0	9671	3.253034263042	3
0	9679	3.253090263042	2
0	9686	3.253239263042	3
0	9692	3.253343263042	2
0	9809	3.259533751949	3
0	9817	3.259589751949	2
0	9846	3.260472801671	3
0	9859	3.260528801671	2
0	9866	3.260638801671	3
0	9872	3.260742801671	2
0	9917	3.261713851393	3
0	9925	3.261769851393	2
0	9932	3.261840851393	3
0	9938	3.261944851393	2
0	9984	3.263006901115	3
0	9992	3.263062901115	2
0	10000	3.263159901115	3
0	10006	3.263263901115	2
0	10053	3.264325950837	3
0	10061	3.264381950837	2
0	10068	3.264569950837	3
0	10074	3.264673950837	2
0	10143	3.270476649665	3
0	10152	3.270532649665	2
0	10159	3.270707649665	3
0	10166	3.270811649665	2
0	10220	3.271795699387	3
0	10228	3.271851699387	2
0	10237	3.272091699387	3
0	10243	3.272195699387	2
0	10331	3.274222299961	3
0	10339	3.274278299961	2
0	10409	3.276305850813	3
0	10417	3.276361850813	2
0	10514	3.279223952517	3
0	10522	3.279279952517	2
0	10546	3.280189002239	3
0	10554	3.280245002239	2
0	10624	3.283901926691	3
0	10632	3.283957926691	2
0	10679	3.288379701278	3
0	10687	3.288435701278	2
0	10694	3.288506701278	3
0	10700	3.288610701278	2
0	10783	3.291242636861	3
0	10791	3.291298636861	2
0	10834	3.295188118714	3
0	10842	3.295244118714	2
0	10849	3.295315118714	3
0	10855	3.295419118714	2
0	10905	3.296494168436	3
0	10913	3.296550168436	2
0	10920	3.296699168436	3
0	10926	3.296803168436	2
0	10971	3.297787218158	3
0	10979	3.297843218158	2
0	10986	3.298031218158	3
0	10992	3.298135218158	2
0	11103	3.309376149119	3
0	11111	3.309432149119	2
0	11137	3.310289201721	3
0	11145	3.310345201721	2
0	11152	3.310559201721	3
0	11158	3.310663201721	2
0	11214	3.31563024373	3
0	11222	3.31568624373	2
0	11229	3.31578324373	3
0	11235	3.31588724373	2
0	11293	3.319258181387	3
0	11301	3.319314181387	2
0	11310	3.319450181387	3
0	11316	3.319554181387	2
0	11430	3.326452721307	3
0	11438	3.326508721307	2
0	11475	3.328175809239	3
0	11483	3.328231809239	2
0	11490	3.328289809239	3
0	11496	3.328393809239	2
0	11583	3.337983557468	3
0	11591	3.338039557468	2
0	11626	3.343435129267	3
0	11634	3.343491129267	2
0	11641	3.343666129267	3
0	11647	3.343770129267	2
0	11726	3.346498990373	3
0	11734	3.346554990373	2
0	11775	3.353003910977	3
0	11783	3.353059910977	2
0	11790	3.353221910977	3
0	11796	3.353325910977	2
0	11879	3.355365514283	3
0	11888	3.355421514283	2
0	11951	3.35867587364	3
0	11959	3.35873187364	2
0	12023	3.37818973212	3
0	12031	3.37824573212	2
0	12038	3.37847273212	3
0	12044	3.37857673212	2
0	12123	3.382125894347	3
0	12131	3.382181894347	2
0	12230	3.422858786578	3
0	12238	3.422914786578	2
0	12251	3.427037516781	3
0	12257	3.427141516781	2
0	12335	3.427433572321	3
0	12343	3.427489572321	2
0	12350	3.427625572321	3
0	12356	3.427729572321	2
0	12381	3.427942627861	3
0	12387	3.428046627861	2
0	12445	3.428470683401	3
0	12451	3.428574683401	2
0	12476	3.428722738941	3
0	12482	3.428826738941	2
0	12552	3.429354794481	3
0	12558	3.429458794481	2
0	12566	3.429929794481	3
0	12572	3.430033794481	2
0	12661	3.431190895597	3
0	12672	3.431294895597	2
0	12680	3.431570895597	3
0	12686	3.431674895597	2
0	12716	3.432704895597	3
0	12722	3.432808895597	2
0	12740	3.434176895597	3
0	12753	3.434280895597	2
0	12793	3.435966109586	3
0	12801	3.436022109586	2
0	12890	3.439270210702	3
0	12903	3.439374210702	2
0	12918	3.439637210702	3
0	12924	3.439741210702	2
0	12945	3.440095210702	3
0	12953	3.440199210702	2
0	13004	3.441170266242	3
0	13012	3.441226266242	2
0	13019	3.441310266242	3
0	13025	3.441414266242	2
0	13057	3.441757321782	3
0	13064	3.441861321782	2
0	13103	3.4431398168	3
0	13111	3.4431958168	2
0	13191	3.444043422898	3
0	13197	3.444147422898	2
0	13223	3.445242422898	3
0	13229	3.445346422898	2
0	13250	3.445494478438	3
0	13256	3.445598478438	2
0	13316	3.446048533978	3
0	13322	3.446152533978	2
0	13354	3.446430589518	3
0	13365	3.446534589518	2
0	13373	3.446680589518	3
0	13379	3.446784589518	2
0	13387	3.447151589518	3
0	13401	3.447255589518	2
0	13461	3.448601195616	3
0	13469	3.448657195616	2
0	13492	3.450093195616	3
0	13498	3.450197195616	2
0	13546	3.451899746174	3
0	13554	3.451955746174	2
0	13568	3.452793746174	3
0	13574	3.452897746174	2
0	13601	3.453201801714	3
0	13607	3.453305801714	2
0	13702	3.454150407812	3
0	13708	3.454254407812	2
0	13767	3.454847463352	3
0	13773	3.454951463352	2
0	13798	3.455112518892	3
0	13804	3.455216518892	2
0	13831	3.455520574432	3
0	13838	3.455624574432	2
0	13967	3.456720731088	3
0	13973	3.456824731088	2
0	13998	3.457063786628	3
0	14005	3.457167786628	2
0	14099	3.457973392726	3
0	14105	3.458077392726	2
0	14130	3.458225448266	3
0	14136	3.458329448266	2
0	14161	3.458529503806	3
0	14168	3.458633503806	2
0	14227	3.459174559346	3
0	14233	3.459278559346	2
0	14291	3.459845614886	3
0	14297	3.459949614886	2
0	14322	3.460097670426	3
0	14328	3.460201670426	2
0	14386	3.460651725966	3
0	14392	3.460755725966	2
0	14452	3.461309781506	3
0	14458	3.461413781506	2
0	14469	3.461536781506	3
0	14475	3.461640781506	2
0	14583	3.463169938162	3
0	14591	3.463225938162	2
0	14598	3.463296938162	3
0	14606	3.463400938162	2
0	14644	3.464348993702	3
0	14652	3.464404993702	2
0	14685	3.464684049242	3
0	14694	3.464740049242	2
0	14701	3.464863049242	3
0	14715	3.464967049242	2
0	14727	3.465321049242	3
0	14733	3.465425049242	2
0	14742	3.465623049242	3
0	14755	3.465727049242	2
0	14780	3.466939049242	3
0	14786	3.467043049242	2
0	14813	3.467256104782	3
0	14820	3.467360104782	2
0	14853	3.467690160322	3
0	14859	3.467794160322	2
0	14887	3.467981215862	3
0	14900	3.468085215862	2
0	15076	3.474302923076	3
0	15085	3.474358923076	2
0	15097	3.474494923076	3
0	15106	3.474598923076	2
0	15117	3.474991923076	3
0	15123	3.475095923076	2
0	15147	3.475709923076	3
0	15154	3.475813923076	2
0	15194	3.477238473634	3
0	15202	3.477294473634	2
0	15232	3.478177529174	3
0	15240	3.478233529174	2
0	15264	3.479155584714	3
0	15272	3.479211584714	2
0	15286	3.479984584714	3
0	15292	3.480088584714	2
0	15355	3.482588135272	3
0	15367	3.482692135272	2
0	15396	3.483682190812	3
0	15404	3.483738190812	2
0	15432	3.484621246352	3
0	15440	3.484677246352	2
0	15533	3.487682347468	3
0	15541	3.487738347468	2
0	15567	3.488647403008	3
0	15575	3.488703403008	2
0	15609	3.490999906522	3
0	15617	3.491055906522	2
0	15626	3.491971906522	3
0	15632	3.492075906522	2
0	15658	3.492275962062	3
0	15664	3.492379962062	2
0	15690	3.492632017602	3
0	15698	3.492736017602	2
0	15760	3.495979385515	3
0	15768	3.496035385515	2
0	15775	3.496106385515	3
0	15781	3.496210385515	2
0	15859	3.50655027843	3
0	15867	3.50660627843	2
0	15874	3.50671627843	3
0	15880	3.50682027843	2
0	15959	3.508833887396	3
0	15967	3.508889887396	2
0	16001	3.511889060058	3
0	16009	3.511945060058	2
0	16016	3.512133060058	3
0	16022	3.512237060058	2
0	16127	3.519397057918	3
0	16135	3.519453057918	2
0	16190	3.521363608328	3
0	16198	3.521419608328	2
0	16275	3.530320067496	3
0	16283	3.530376067496	2
0	16311	3.531389126052	3
0	16320	3.531445126052	2
0	16327	3.531542126052	3
0	16333	3.531646126052	2
0	16429	3.543739304276	3
0	16437	3.543795304276	2
0	16503	3.551853251907	3
0	16511	3.551909251907	2
0	16549	3.556292055198	3
0	16557	3.556348055198	2
0	16564	3.556445055198	3
0	16570	3.556549055198	2
0	16660	3.582629259783	3
0	16668	3.582685259783	2
0	16675	3.582808259783	3
0	16688	3.582912259783	2
0	16697	3.583097259783	3
0	16703	3.583201259783	2
0	16719	3.583737259783	3
0	16732	3.583841259783	2
0	16760	3.585131259783	3
0	16771	3.585235259783	2
0	16790	3.586382259783	3
0	16796	3.586486259783	2
0	16901	3.589906419159	3
0	16909	3.589962419159	2
0	16967	3.591872969569	3
0	16975	3.591928969569	2
0	17002	3.592929028125	3
0	17010	3.592985028125	2
0	17044	3.595549163569	3
0	17052	3.595605163569	2
0	17060	3.595845163569	3
0	17066	3.595949163569	2
0	17158	3.602704044359	3
0	17166	3.602760044359	2
0	17199	3.604290132797	3
0	17207	3.604346132797	2
0	17214	3.604508132797	3
0	17220	3.604612132797	2
0	17294	3.625334101005	3
0	17302	3.625390101005	2
0	17309	3.625604101005	3
0	17315	3.625708101005	2
0	17377	3.628267583716	3
0	17385	3.628323583716	2
0	17392	3.628524583716	3
0	17404	3.628628583716	2
0	17442	3.629101645318	3
0	17448	3.629205645318	2
0	17471	3.629858645318	3
0	17477	3.629962645318	2
0	17508	3.631577645318	3
0	17520	3.631681645318	2
0	17592	3.634638343142	3
0	17600	3.634694343142	2
0	17621	3.635441343142	3
0	17627	3.635545343142	2
0	17683	3.636731893404	3
0	17689	3.636835893404	2
0	17735	3.638395443666	3
0	17743	3.638451443666	2
0	17806	3.640348993928	3
0	17814	3.640404993928	2
0	17838	3.64127505553	3
0	17846	3.64133105553	2
0	17906	3.643254605792	3
0	17914	3.643310605792	2
0	17921	3.643407605792	3
0	17927	3.643511605792	2
0	17948	3.643659667394	3
0	17956	3.643763667394	2
0	18042	3.648397072299	3
0	18050	3.648453072299	2
0	18091	3.651626692622	3
0	18099	3.651682692622	2
0	18106	3.651792692622	3
0	18112	3.651896692622	2
0	18167	3.653134016814	3
0	18175	3.653190016814	2
0	18184	3.653352016814	3
0	18190	3.653456016814	2
0	18316	3.660519065487	3
0	18324	3.660575065487	2
0	18349	3.661614127089	3
0	18357	3.661670127089	2
0	18406	3.676233246866	3
0	18414	3.676289246866	2
0	18421	3.676412246866	3
0	18427	3.676516246866	2
0	18483	3.683279711322	3
0	18491	3.683335711322	2
0	18498	3.683419711322	3
0	18504	3.683523711322	2
0	18587	3.688361439921	3
0	18595	3.688417439921	2
0	18626	3.690833206138	3
0	18634	3.690889206138	2
0	18641	3.691116206138	3
0	18647	3.691220206138	2
0	18705	3.699516307355	3
0	18713	3.699572307355	2
0	18720	3.699643307355	3
0	18726	3.699747307355	2
0	18786	3.701275458423	3
0	18795	3.701331458423	2
0	18802	3.701454458423	3
0	18808	3.701558458423	2
0	18891	3.709517382762	3
0	18899	3.709573382762	2
0	18984	3.716416855858	3
0	18992	3.716472855858	2
0	19022	3.717316920574	3
0	19030	3.717372920574	2
0	19044	3.717521920574	3
0	19050	3.717625920574	2
0	19058	3.717823920574	3
0	19064	3.717927920574	2
0	19109	3.719380470694	3
0	19117	3.719436470694	2
0	19133	3.719754470694	3
0	19139	3.719858470694	2
0	19147	3.720381470694	3
0	19159	3.720485470694	2
0	19176	3.720995470694	3
0	19182	3.721099470694	2
0	19222	3.722420020814	3
0	19230	3.722476020814	2
0	19285	3.725322570934	3
0	19293	3.725378570934	2
0	19333	3.729453570934	3
0	19339	3.729557570934	2
0	19416	3.732391840595	3
0	19424	3.732447840595	2
0	19499	3.734492378332	3
0	19507	3.734548378332	2
0	19516	3.737128378332	3
0	19522	3.737232378332	2
0	19548	3.737432443048	3
0	19554	3.737536443048	2
0	19580	3.737684507764	3
0	19586	3.737788507764	2
0	19706	3.753443606814	3
0	19714	3.753499606814	2
0	19740	3.75444767153	3
0	19748	3.75450367153	2
0	19755	3.75457467153	3
0	19761	3.75467867153	2
0	19811	3.755751485477	3
0	19819	3.755807485477	2
0	19826	3.755878485477	3
0	19832	3.755982485477	2
0	19870	3.76178504507	3
0	19876	3.76188904507	2
0	19938	3.769083165633	3
0	19946	3.769139165633	2
0	19953	3.769340165633	3
0	19959	3.769444165633	2
0	20045	3.775433082575	3
0	20058	3.775489082575	2
0	20089	3.776346147291	3
0	20097	3.776402147291	2
0	20123	3.777246212007	3
0	20131	3.777302212007	2
0	20138	3.777425212007	3
0	20144	3.777529212007	2
0	20170	3.777703276723	3
0	20176	3.777807276723	2
0	20238	3.781372675839	3
0	20246	3.781428675839	2
0	20260	3.781616675839	3
0	20266	3.781720675839	2
0	20274	3.782178675839	3
0	20286	3.782282675839	2
0	20303	3.783013675839	3
0	20309	3.783117675839	2
0	20343	3.784420675839	3
0	20356	3.784524675839	2
0	20388	3.785605740555	3
0	20396	3.785661740555	2
0	20412	3.786759740555	3
0	20418	3.786863740555	2
0	20488	3.790693290675	3
0	20501	3.790749290675	2
0	20529	3.791632355391	3
0	20537	3.791688355391	2
0	20546	3.792721355391	3
0	20552	3.792825355391	2
0	20578	3.792999420107	3
0	20584	3.793103420107	2
0	20611	3.793420484823	3
0	20617	3.793524484823	2
0	20655	3.793685549539	3
0	20661	3.793789549539	2
0	20670	3.794169549539	3
0	20676	3.794273549539	2
0	20694	3.794575549539	3
0	20707	3.794679549539	2
0	20774	3.797741621864	3
0	20782	3.797797621864	2
0	20789	3.798687621864	3
0	20795	3.798791621864	2
0	20894	3.805120359382	3
0	20902	3.805176359382	2
0	20960	3.807255909364	3
0	20968	3.807311909364	2
0	21038	3.823326292423	3
0	21046	3.823382292423	2
0	21053	3.823518292423	3
0	21059	3.823622292423	2
0	21109	3.824709926309	3
0	21117	3.824765926309	2
0	21124	3.825018926309	3
0	21130	3.825122926309	2
0	21229	3.84654528126	3
0	21237	3.84660128126	2
0	21304	3.864509553701	3
0	21312	3.864565553701	2
0	21343	3.869022010964	3
0	21351	3.869078010964	2
0	21358	3.869240010964	3
0	21364	3.869344010964	2
0	21450	3.876072798972	3
0	21458	3.876128798972	2
0	21525	3.881294445244	3
0	21533	3.881350445244	2
0	21572	3.883503959219	3
0	21580	3.883559959219	2
0	21587	3.883656959219	3
0	21593	3.883760959219	2
0	21638	3.884758027163	3
0	21646	3.884814027163	2
0	21654	3.884976027163	3
0	21661	3.885080027163	2
0	21766	3.898128567449	3
0	21774	3.898184567449	2
0	21838	3.901733991928	3
0	21846	3.901789991928	2
0	21955	3.921132812254	3
0	21963	3.921188812254	2
0	21987	3.922188883464	3
0	21995	3.922244883464	2
0	22027	3.923101954674	3
0	22035	3.923157954674	2
0	22042	3.923215954674	3
0	22048	3.923319954674	2
0	22127	3.927844048864	3
0	22135	3.927900048864	2
0	22218	3.934909352838	3
0	22226	3.934965352838	2
0	22288	3.936966923948	3
0	22296	3.937022923948	2
0	22359	3.938868495058	3
0	22367	3.938924495058	2
0	22414	3.948175589626	3
0	22422	3.948231589626	2
0	22429	3.948406589626	3
0	22435	3.948510589626	2
0	22543	3.960953897462	3
0	22551	3.961009897462	2
0	22606	3.962933468572	3
0	22614	3.962989468572	2
0	22680	3.967489889833	3
0	22688	3.967545889833	2
0	22806	4.002900997182	3
0	22814	4.002956997182	2
0	22874	4.00682633767	3
0	22882	4.00688233767	2
0	22971	4.021416213693	3
0	22979	4.021472213693	2
0	23010	4.02271496382	3
0	23018	4.02277096382	2
0	23025	4.02301096382	3
0	23031	4.02311496382	2
0	23081	4.024190038384	3
0	23089	4.024246038384	2
0	23096	4.024473038384	3
0	23102	4.024577038384	2
0	23167	4.040717804658	3
0	23175	4.040773804658	2
0	23182	4.040935804658	3
0	23188	4.041039804658	2
0	23280	4.058807863635	3
0	23288	4.058863863635	2
0	23325	4.067504125969	3
0	23333	4.067560125969	2
0	23340	4.067683125969	3
0	23347	4.067787125969	2
0	23409	4.075496863992	3
0	23417	4.075552863992	2
0	23424	4.075675863992	3
0	23430	4.075779863992	2
0	23513	4.077951730085	3
0	23521	4.078007730085	2
0	23552	4.081419541256	3
0	23560	4.081475541256	2
0	23567	4.081728541256	3
0	23573	4.081832541256	2
0	23641	4.096706528667	3
0	23649	4.096762528667	2
0	23656	4.096833528667	3
0	23662	4.096937528667	2
0	23731	4.103306618738	3
0	23740	4.103362618738	2
0	23748	4.103433618738	3
0	23768	4.103537618738	2
0	23784	4.103956618738	3
0	23791	4.104060618738	2
0	23889	4.112779411378	3
0	23898	4.112835411378	2
0	23984	4.134875716732	3
0	23993	4.134931716732	2
0	24001	4.135080716732	3
0	24008	4.135184716732	2
0	24102	4.141791784427	3
0	24111	4.141847784427	2
0	24199	4.151408229655	3
0	24208	4.151464229655	2
0	24246	4.161175224521	3
0	24255	4.161231224521	2
0	24264	4.161419224521	3
0	24272	4.161523224521	2
0	24379	4.171223117288	3
0	24389	4.171279117288	2
0	24425	4.173014518236	3
0	24434	4.173070518236	2
0	24442	4.173284518236	3
0	24449	4.173388518236	2
0	24504	4.174529654202	3
0	24513	4.174585654202	2
0	24521	4.174773654202	3
0	24528	4.174877654202	2
0	24589	4.177895265852	3
0	24598	4.177951265852	2
0	24606	4.178048265852	3
0	24613	4.178152265852	2
0	24670	4.180627425678	3
[...]
233	41880	5.259651062617	0
233	42277	5.275512948422	0
233	42277	5.275512948422	8.8e-05
233	42300	5.275600948422	0
233	42633	5.28275843034	0
233	42633	5.28275843034	8.8e-05
233	42656	5.28284643034	0
234	37798	5.111753517273	58
234	37843	5.112002525131	58
234	37916	5.112348571397	14
234	37962	5.112722539981	14
234	37985	5.113597539981	1058
234	38063	5.114015547839	14
234	38086	5.114877547839	1058
234	38157	5.115321555697	14
234	38306	5.125224421832	1058
234	38379	5.12570742969	14
234	38622	5.150587110563	1058
234	38671	5.151578118421	1058
234	38742	5.151970126279	14
234	38786	5.152300134137	14
234	38811	5.154652237918	1058
234	38882	5.155018245776	14
234	38919	5.161971133624	1058
234	38999	5.162428141482	14
234	39311	5.179674684231	1058
234	39384	5.180144692089	14
234	39512	5.187196966595	1058
234	39583	5.187666974453	14
234	39705	5.194336300469	1058
234	39776	5.194819308327	14
234	40027	5.202863626087	1058
234	40183	5.204355637331	14
234	40694	5.22158754323	1058
234	40768	5.222057548852	14
234	40819	5.229356780821	1058
234	40890	5.229852786443	14
234	41123	5.235562478051	1058
234	41194	5.236058483673	14
234	41857	5.259563062617	1058
234	41928	5.260020068239	14
234	42277	5.275512948422	1058
234	42348	5.275956954044	14
234	42633	5.28275843034	1058
234	42705	5.283293435962	14
235	37798	5.111753517273	58
235	37843	5.112002525131	58
235	37916	5.112348571397	14
235	37962	5.112722539981	14
235	37985	5.113597539981	1058
235	38063	5.114015547839	14
235	38086	5.114877547839	1058
235	38157	5.115321555697	14
235	38306	5.125224421832	1058
235	38379	5.12570742969	14
235	38622	5.150587110563	1058
235	38671	5.151578118421	1058
235	38742	5.151970126279	14
235	38786	5.152300134137	14
235	38811	5.154652237918	1058
235	38882	5.155018245776	14
235	38919	5.161971133624	1058
235	38999	5.162428141482	14
235	39311	5.179674684231	1058
235	39384	5.180144692089	14
235	39512	5.187196966595	1058
235	39583	5.187666974453	14
235	39705	5.194336300469	1058
235	39776	5.194819308327	14
235	40027	5.202863626087	1058
235	40183	5.204355637331	14
235	40694	5.22158754323	1058
235	40768	5.222057548852	14
235	40819	5.229356780821	1058
235	40890	5.229852786443	14
235	41123	5.235562478051	1058
235	41194	5.236058483673	14
235	41857	5.259563062617	1058
235	41928	5.260020068239	14
235	42277	5.275512948422	1058
235	42348	5.275956954044	14
235	42633	5.28275843034	1058
235	42705	5.283293435962	14
236	37798	5.111753517273	58
236	37843	5.112002525131	58
236	37916	5.112348571397	14
236	37962	5.112722539981	14
236	37985	5.113597539981	1058
236	38063	5.114015547839	14
236	38086	5.114877547839	1058
236	38157	5.115321555697	14
236	38306	5.125224421832	1058
236	38379	5.12570742969	14
236	38622	5.150587110563	1058
236	38671	5.151578118421	1058
236	38742	5.151970126279	14
236	38786	5.152300134137	14
236	38811	5.154652237918	1058
236	38882	5.155018245776	14
236	38919	5.161971133624	1058
236	38999	5.162428141482	14
236	39311	5.179674684231	1058
236	39384	5.180144692089	14
236	39512	5.187196966595	1058
236	39583	5.187666974453	14
236	39705	5.194336300469	1058
236	39776	5.194819308327	14
236	40027	5.202863626087	1058
236	40183	5.204355637331	14
236	40694	5.22158754323	1058
236	40768	5.222057548852	14
236	40819	5.229356780821	1058
236	40890	5.229852786443	14
236	41123	5.235562478051	1058
236	41194	5.236058483673	14
236	41857	5.259563062617	1058
236	41928	5.260020068239	14
236	42277	5.275512948422	1058
236	42348	5.275956954044	14
236	42633	5.28275843034	1058
236	42705	5.283293435962	14
237	37800	5.111753967923	0
237	37800	5.111753967923	8.8e-05
237	37820	5.111841967923	0
237	37845	5.112002975781	0
237	37845	5.112002975781	8.8e-05
237	37865	5.112090975781	0
237	37987	5.113597990631	0
237	37987	5.113597990631	8.8e-05
237	38016	5.113685990631	0
237	38088	5.114877998489	0
237	38088	5.114877998489	8.8e-05
237	38110	5.114965998489	0
237	38308	5.125224872482	0
237	38308	5.125224872482	8.8e-05
237	38331	5.125312872482	0
237	38624	5.150587561213	0
237	38624	5.150587561213	8.8e-05
237	38646	5.150675561213	0
237	38673	5.151578569071	0
237	38673	5.151578569071	8.8e-05
237	38695	5.151666569071	0
237	38813	5.154652688568	0
237	38813	5.154652688568	8.8e-05
237	38835	5.154740688568	0
237	38922	5.161971584274	0
237	38922	5.161971584274	8.8e-05
237	38944	5.162059584274	0
237	39313	5.179675134881	0
237	39313	5.179675134881	8.8e-05
237	39335	5.179763134881	0
237	39514	5.187197417245	0
237	39514	5.187197417245	8.8e-05
237	39536	5.187285417245	0
237	39707	5.194336751119	0
237	39707	5.194336751119	8.8e-05
237	39729	5.194424751119	0
237	40029	5.202864075857	0
237	40029	5.202864075857	8.8e-05
237	40051	5.202952075857	0
237	40696	5.221587993	0
237	40696	5.221587993	8.8e-05
237	40721	5.221675993	0
237	40821	5.229357230591	0
237	40821	5.229357230591	8.8e-05
237	40843	5.229445230591	0
237	41125	5.235562927821	0
237	41125	5.235562927821	8.8e-05
237	41147	5.235650927821	0
237	41859	5.259563512387	0
237	41859	5.259563512387	8.8e-05
237	41881	5.259651512387	0
237	42279	5.275513398192	0
237	42279	5.275513398192	8.8e-05
237	42301	5.275601398192	0
237	42635	5.28275888011	0
237	42635	5.28275888011	8.8e-05
237	42657	5.28284688011	0
238	37800	5.111753967923	58
238	37845	5.112002975781	58
238	37918	5.112349022047	14
238	37964	5.112722990631	14
238	37987	5.113597990631	1058
238	38065	5.114015998489	14
238	38088	5.114877998489	1058
238	38159	5.115322006347	14
238	38308	5.125224872482	1058
238	38381	5.12570788034	14
238	38624	5.150587561213	1058
238	38673	5.151578569071	1058
238	38744	5.151970576929	14
238	38788	5.152300584787	14
238	38813	5.154652688568	1058
238	38884	5.155018696426	14
238	38922	5.161971584274	1058
238	39001	5.162428592132	14
238	39313	5.179675134881	1058
238	39386	5.180145142739	14
238	39514	5.187197417245	1058
238	39585	5.187667425103	14
238	39707	5.194336751119	1058
238	39778	5.194819758977	14
238	40029	5.202864075857	1058
238	40114	5.203399081479	14
238	40185	5.204356087101	14
238	40696	5.221587993	1058
238	40770	5.222057998622	14
238	40821	5.229357230591	1058
238	40892	5.229853236213	14
238	41125	5.235562927821	1058
238	41196	5.236058933443	14
238	41859	5.259563512387	1058
238	41930	5.260020518009	14
238	42279	5.275513398192	1058
238	42350	5.275957403814	14
238	42635	5.28275888011	1058
238	42707	5.283293885732	14
239	37800	5.111753967923	58
239	37845	5.112002975781	58
239	37918	5.112349022047	14
239	37964	5.112722990631	14
239	37987	5.113597990631	1058
239	38065	5.114015998489	14
239	38088	5.114877998489	1058
239	38159	5.115322006347	14
239	38308	5.125224872482	1058
239	38381	5.12570788034	14
239	38624	5.150587561213	1058
239	38673	5.151578569071	1058
239	38744	5.151970576929	14
239	38788	5.152300584787	14
239	38813	5.154652688568	1058
239	38884	5.155018696426	14
239	38922	5.161971584274	1058
239	39001	5.162428592132	14
239	39313	5.179675134881	1058
239	39386	5.180145142739	14
239	39514	5.187197417245	1058
239	39585	5.187667425103	14
239	39707	5.194336751119	1058
239	39778	5.194819758977	14
239	40029	5.202864075857	1058
239	40114	5.203399081479	14
239	40185	5.204356087101	14
239	40696	5.221587993	1058
239	40770	5.222057998622	14
239	40821	5.229357230591	1058
239	40892	5.229853236213	14
239	41125	5.235562927821	1058
239	41196	5.236058933443	14
239	41859	5.259563512387	1058
239	41930	5.260020518009	14
239	42279	5.275513398192	1058
239	42350	5.275957403814	14
239	42635	5.28275888011	1058
239	42707	5.283293885732	14
240	37800	5.111753967923	58
240	37845	5.112002975781	58
240	37918	5.112349022047	14
240	37964	5.112722990631	14
240	37987	5.113597990631	1058
240	38065	5.114015998489	14
240	38088	5.114877998489	1058
240	38159	5.115322006347	14
240	38308	5.125224872482	1058
240	38381	5.12570788034	14
240	38624	5.150587561213	1058
240	38673	5.151578569071	1058
240	38744	5.151970576929	14
240	38788	5.152300584787	14
240	38813	5.154652688568	1058
240	38884	5.155018696426	14
240	38922	5.161971584274	1058
240	39001	5.162428592132	14
240	39313	5.179675134881	1058
240	39386	5.180145142739	14
240	39514	5.187197417245	1058
240	39585	5.187667425103	14
240	39707	5.194336751119	1058
240	39778	5.194819758977	14
240	40029	5.202864075857	1058
240	40114	5.203399081479	14
240	40185	5.204356087101	14
240	40696	5.221587993	1058
240	40770	5.222057998622	14
240	40821	5.229357230591	1058
240	40892	5.229853236213	14
240	41125	5.235562927821	1058
240	41196	5.236058933443	14
240	41859	5.259563512387	1058
240	41930	5.260020518009	14
240	42279	5.275513398192	1058
240	42350	5.275957403814	14
240	42635	5.28275888011	1058
240	42707	5.283293885732	14
241	37802	5.111753970676	58
241	37827	5.111843048358	14
241	37899	5.112260094624	78
241	37920	5.1123490248	14
241	37989	5.113597993384	1058
241	38023	5.113687071066	14
241	38046	5.113927071066	86
241	38067	5.114016001242	14
241	38090	5.114878001242	1058
241	38117	5.114967078924	14
241	38140	5.115233078924	86
241	38161	5.1153220091	14
241	38310	5.125224875235	1058
241	38338	5.125313952917	14
241	38362	5.125618952917	86
241	38383	5.125707883093	14
241	38626	5.150587563966	1058
241	38653	5.150676641648	14
241	38675	5.151578571824	1058
241	38702	5.151667649506	14
241	38725	5.151881649506	86
241	38746	5.151970579682	14
241	38769	5.152211657364	86
241	38790	5.15230058754	14
241	38815	5.154652691321	1058
241	38842	5.154741769003	14
241	38865	5.154929769003	86
241	38886	5.155018699179	14
241	38924	5.161971587027	1058
241	38951	5.162060664709	14
241	38982	5.162339664709	86
241	39003	5.162428594885	14
241	39315	5.179675137634	1058
241	39342	5.179764215316	14
241	39367	5.180056215316	86
241	39388	5.180145145492	14
241	39516	5.187197419998	1058
241	39543	5.18728649768	14
241	39566	5.18757849768	86
241	39587	5.187667427856	14
241	39709	5.194336753872	1058
241	39736	5.194425831554	14
241	39759	5.194730831554	86
241	39780	5.19481976173	14
241	40031	5.202864079875	1058
241	40058	5.202953156504	14
241	40087	5.203310156504	86
241	40165	5.204267162126	86
241	40187	5.204356091119	14
241	40698	5.221587997018	1058
241	40728	5.221677073647	14
241	40751	5.221969073647	86
241	40772	5.22205800264	14
241	40823	5.229357234609	1058
241	40850	5.229446311238	14
241	40873	5.229764311238	86
241	40894	5.229853240231	14
241	41127	5.235562931839	1058
241	41154	5.235652008468	14
241	41177	5.235970008468	86
241	41198	5.236058937461	14
241	41861	5.259563516405	1058
241	41888	5.259652593034	14
241	41911	5.259931593034	86
241	41932	5.260020522027	14
241	42281	5.27551340221	1058
241	42308	5.275602478839	14
241	42331	5.275868478839	86
241	42352	5.275957407832	14
241	42637	5.282758884128	1058
241	42664	5.282847960757	14
241	42688	5.283204960757	86
241	42709	5.28329388975	14
242	37802	5.111753970676	58
242	37827	5.111843048358	14
242	37899	5.112260094624	78
242	37920	5.1123490248	14
242	37989	5.113597993384	1058
242	38023	5.113687071066	14
242	38046	5.113927071066	86
242	38067	5.114016001242	14
242	38090	5.114878001242	1058
242	38117	5.114967078924	14
242	38140	5.115233078924	86
242	38161	5.1153220091	14
242	38310	5.125224875235	1058
242	38338	5.125313952917	14
242	38362	5.125618952917	86
242	38383	5.125707883093	14
242	38626	5.150587563966	1058
242	38653	5.150676641648	14
242	38675	5.151578571824	1058
242	38702	5.151667649506	14
242	38725	5.151881649506	86
242	38746	5.151970579682	14
242	38769	5.152211657364	86
242	38790	5.15230058754	14
242	38815	5.154652691321	1058
242	38842	5.154741769003	14
242	38865	5.154929769003	86
242	38886	5.155018699179	14
242	38924	5.161971587027	1058
242	38951	5.162060664709	14
242	38982	5.162339664709	86
242	39003	5.162428594885	14
242	39315	5.179675137634	1058
242	39342	5.179764215316	14
242	39367	5.180056215316	86
242	39388	5.180145145492	14
242	39516	5.187197419998	1058
242	39543	5.18728649768	14
242	39566	5.18757849768	86
242	39587	5.187667427856	14
242	39709	5.194336753872	1058
242	39736	5.194425831554	14
242	39759	5.194730831554	86
242	39780	5.19481976173	14
242	40031	5.202864079875	1058
242	40058	5.202953156504	14
242	40087	5.203310156504	86
242	40165	5.204267162126	86
242	40187	5.204356091119	14
242	40698	5.221587997018	1058
242	40728	5.221677073647	14
242	40751	5.221969073647	86
242	40772	5.22205800264	14
242	40823	5.229357234609	1058
242	40850	5.229446311238	14
242	40873	5.229764311238	86
242	40894	5.229853240231	14
242	41127	5.235562931839	1058
242	41154	5.235652008468	14
242	41177	5.235970008468	86
242	41198	5.236058937461	14
242	41861	5.259563516405	1058
242	41888	5.259652593034	14
242	41911	5.259931593034	86
242	41932	5.260020522027	14
242	42281	5.27551340221	1058
242	42308	5.275602478839	14
242	42331	5.275868478839	86
242	42352	5.275957407832	14
242	42637	5.282758884128	1058
242	42664	5.282847960757	14
242	42688	5.283204960757	86
242	42709	5.28329388975	14
243	37804	5.111753990313	58
243	40033	5.20286409636	1058
243	42283	5.275513418695	1058
244	37825	5.111842994242	14
244	37872	5.112091962826	14
244	37889	5.112260040508	78
244	37939	5.112634009092	78
244	38021	5.11368701695	14
244	38039	5.11392701695	86
244	38115	5.114967024808	14
244	38133	5.115233024808	86
244	38336	5.125313898801	14
244	38355	5.125618898801	86
244	38651	5.150676587532	14
244	38700	5.15166759539	14
244	38718	5.15188159539	86
244	38762	5.152211603248	86
244	38840	5.154741714887	14
244	38858	5.154929714887	86
244	38949	5.162060610593	14
244	38975	5.162339610593	86
244	39340	5.1797641612	14
244	39360	5.1800561612	86
244	39541	5.187286443564	14
244	39559	5.187578443564	86
244	39734	5.194425777438	14
244	39752	5.194730777438	86
244	40056	5.202953099171	14
244	40080	5.203310099171	86
244	40163	5.204267104793	86
244	40726	5.221677016314	14
244	40744	5.221969016314	86
244	40848	5.229446253905	14
244	40866	5.229764253905	86
244	41152	5.235651951135	14
244	41170	5.235969951135	86
244	41886	5.259652535701	14
244	41904	5.259931535701	86
244	42306	5.275602421506	14
244	42324	5.275868421506	86
244	42662	5.282847903424	14
244	42681	5.283204903424	86
245	37892	5.112260040508	28
245	37942	5.112634009092	28
246	37892	5.112260040508	1
246	37942	5.112634009092	2
247	40163	5.204267104793	86
248	40163	5.204267104793	86
249	40163	5.204267104793	86
vector 250 RoutingScenario.node[0].app[0] throughput:vector ETV
attr source throughput(packetReceived)
attr title "throughput, vector"
attr unit bps
250	42793	0.1	0
250	42793	0.2	0
250	42793	0.3	0
250	42793	0.4	0
250	42793	0.5	0
250	42793	0.6	0
250	42793	0.7	0
250	42793	0.8	0
250	42793	0.9	0
250	42793	1	0
250	42793	1.1	0
250	42793	1.2	0
250	42793	1.3	0
250	42793	1.4	0
250	42793	1.5	0
250	42793	1.6	0
250	42793	1.7	0
250	42793	1.8	0
250	42793	1.9	0
250	42793	2	0
250	42793	2.1	0
250	42793	2.2	0
250	42793	2.3	0
250	42793	2.4	0
250	42793	2.5	0
250	42793	2.6	0
250	42793	2.7	0
250	42793	2.8	0
250	42793	2.9	0
250	42793	3	0
250	42793	3.1	0
250	42793	3.2	0
250	42793	3.3	0
250	42793	3.4	0
250	42793	3.5	0
250	42793	3.6	0
250	42793	3.7	0
250	42793	3.8	0
250	42793	3.9	0
250	42793	4	0
250	42793	4.1	0
250	42793	4.2	0
250	42793	4.3	0
250	42793	4.4	0
250	42793	4.5	0
250	42793	4.6	0
250	42793	4.7	0
250	42793	4.8	0
250	42793	4.9	0
250	42793	5	0
250	42793	5.1	0
250	42793	5.2	0
250	42793	5.290122146992	0
vector 251 RoutingScenario.node[1].app[0] throughput:vector ETV
attr source throughput(packetReceived)
attr title "throughput, vector"
attr unit bps
251	42793	0.1	0
251	42793	0.2	0
251	42793	0.3	0
251	42793	0.4	0
251	42793	0.5	0
251	42793	0.6	0
251	42793	0.7	0
251	42793	0.8	0
251	42793	0.9	0
251	42793	1	0
251	42793	1.1	0
251	42793	1.2	0
251	42793	1.3	0
251	42793	1.4	0
251	42793	1.5	0
251	42793	1.6	0
251	42793	1.7	0
251	42793	1.8	0
251	42793	1.9	0
251	42793	2	0
251	42793	2.1	0
251	42793	2.2	0
251	42793	2.3	0
251	42793	2.4	0
251	42793	2.5	0
251	42793	2.6	0
251	42793	2.7	0
251	42793	2.8	0
251	42793	2.9	0
251	42793	3	0
251	42793	3.1	0
251	42793	3.2	0
251	42793	3.3	0
251	42793	3.4	0
251	42793	3.5	0
251	42793	3.6	0
251	42793	3.7	0
251	42793	3.8	0
251	42793	3.9	0
251	42793	4	0
251	42793	4.1	0
251	42793	4.2	0
251	42793	4.3	0
251	42793	4.4	0
251	42793	4.5	0
251	42793	4.6	0
251	42793	4.7	0
251	42793	4.8	0
251	42793	4.9	0
251	42793	5	0
251	42793	5.1	0
251	42793	5.2	0
251	42793	5.290122146992	0
vector 252 RoutingScenario.node[2].app[0] throughput:vector ETV
attr source throughput(packetReceived)
attr title "throughput, vector"
attr unit bps
252	42793	0.1	0
252	42793	0.2	0
252	42793	0.3	0
252	42793	0.4	0
252	42793	0.5	0
252	42793	0.6	0
252	42793	0.7	0
252	42793	0.8	0
252	42793	0.9	0
252	42793	1	0
252	42793	1.1	0
252	42793	1.2	0
252	42793	1.3	0
252	42793	1.4	0
252	42793	1.5	0
252	42793	1.6	0
252	42793	1.7	0
252	42793	1.8	0
252	42793	1.9	0
252	42793	2	0
252	42793	2.1	0
252	42793	2.2	0
252	42793	2.3	0
252	42793	2.4	0
252	42793	2.5	0
252	42793	2.6	0
252	42793	2.7	0
252	42793	2.8	0
252	42793	2.9	0
252	42793	3	0
252	42793	3.1	0
252	42793	3.2	0
252	42793	3.3	0
252	42793	3.4	0
252	42793	3.5	0
252	42793	3.6	0
252	42793	3.7	0
252	42793	3.8	0
252	42793	3.9	0
252	42793	4	0
252	42793	4.1	0
252	42793	4.2	0
252	42793	4.3	0
252	42793	4.4	0
252	42793	4.5	0
252	42793	4.6	0
252	42793	4.7	0
252	42793	4.8	0
252	42793	4.9	0
252	42793	5	0
252	42793	5.1	0
252	42793	5.2	0
252	42793	5.290122146992	0
vector 253 RoutingScenario.node[3].app[0] throughput:vector ETV
attr source throughput(packetReceived)
attr title "throughput, vector"
attr unit bps
253	42793	0.1	0
253	42793	0.2	0
253	42793	0.3	0
253	42793	0.4	0
253	42793	0.5	0
253	42793	0.6	0
253	42793	0.7	0
253	42793	0.8	0
253	42793	0.9	0
253	42793	1	0
253	42793	1.1	0
253	42793	1.2	0
253	42793	1.3	0
253	42793	1.4	0
253	42793	1.5	0
253	42793	1.6	0
253	42793	1.7	0
253	42793	1.8	0
253	42793	1.9	0
253	42793	2	0
253	42793	2.1	0
253	42793	2.2	0
253	42793	2.3	0
253	42793	2.4	0
253	42793	2.5	0
253	42793	2.6	0
253	42793	2.7	0
253	42793	2.8	0
253	42793	2.9	0
253	42793	3	0
253	42793	3.1	0
253	42793	3.2	0
253	42793	3.3	0
253	42793	3.4	0
253	42793	3.5	0
253	42793	3.6	0
253	42793	3.7	0
253	42793	3.8	0
253	42793	3.9	0
253	42793	4	0
253	42793	4.1	0
253	42793	4.2	0
253	42793	4.3	0
253	42793	4.4	0
253	42793	4.5	0
253	42793	4.6	0
253	42793	4.7	0
253	42793	4.8	0
253	42793	4.9	0
253	42793	5	0
253	42793	5.1	0
253	42793	5.2	0
253	42793	5.290122146992	0
vector 254 RoutingScenario.node[4].app[0] throughput:vector ETV
attr source throughput(packetReceived)
attr title "throughput, vector"
attr unit bps
254	42793	0.1	0
254	42793	0.2	0
254	42793	0.3	0
254	42793	0.4	0
254	42793	0.5	0
254	42793	0.6	0
254	42793	0.7	0
254	42793	0.8	0
254	42793	0.9	0
254	42793	1	0
254	42793	1.1	0
254	42793	1.2	0
254	42793	1.3	0
254	42793	1.4	0
254	42793	1.5	0
254	42793	1.6	0
254	42793	1.7	0
254	42793	1.8	0
254	42793	1.9	0
254	42793	2	0
254	42793	2.1	0
254	42793	2.2	0
254	42793	2.3	0
254	42793	2.4	0
254	42793	2.5	0
254	42793	2.6	0
254	42793	2.7	0
254	42793	2.8	0
254	42793	2.9	0
254	42793	3	0
254	42793	3.1	0
254	42793	3.2	0
254	42793	3.3	0
254	42793	3.4	0
254	42793	3.5	0
254	42793	3.6	0
254	42793	3.7	0
254	42793	3.8	0
254	42793	3.9	0
254	42793	4	0
254	42793	4.1	0
254	42793	4.2	0
254	42793	4.3	0
254	42793	4.4	0
254	42793	4.5	0
254	42793	4.6	0
254	42793	4.7	0
254	42793	4.8	0
254	42793	4.9	0
254	42793	5	0
254	42793	5.1	0
254	42793	5.2	0
254	42793	5.290122146992	0
vector 255 RoutingScenario.node[5].app[0] throughput:vector ETV
attr source throughput(packetReceived)
attr title "throughput, vector"
attr unit bps
255	42793	0.1	0
255	42793	0.2	0
255	42793	0.3	0
255	42793	0.4	0
255	42793	0.5	0
255	42793	0.6	0
255	42793	0.7	0
255	42793	0.8	0
255	42793	0.9	0
255	42793	1	0
255	42793	1.1	0
255	42793	1.2	0
255	42793	1.3	0
255	42793	1.4	0
255	42793	1.5	0
255	42793	1.6	0
255	42793	1.7	0
255	42793	1.8	0
255	42793	1.9	0
255	42793	2	0
255	42793	2.1	0
255	42793	2.2	0
255	42793	2.3	0
255	42793	2.4	0
255	42793	2.5	0
255	42793	2.6	0
255	42793	2.7	0
255	42793	2.8	0
255	42793	2.9	0
255	42793	3	0
255	42793	3.1	0
255	42793	3.2	0
255	42793	3.3	0
255	42793	3.4	0
255	42793	3.5	0
255	42793	3.6	0
255	42793	3.7	0
255	42793	3.8	0
255	42793	3.9	0
255	42793	4	0
255	42793	4.1	0
255	42793	4.2	0
255	42793	4.3	0
255	42793	4.4	0
255	42793	4.5	0
255	42793	4.6	0
255	42793	4.7	0
255	42793	4.8	0
255	42793	4.9	0
255	42793	5	0
255	42793	5.1	0
255	42793	5.2	0
255	42793	5.290122146992	0

