version 2
run canvas-0-20210512-10:05:53-6706
attr configname canvas
attr datetime 20210512-10:05:53
attr experiment canvas
attr inifile omnetpp.ini
attr iterationvars ""
attr iterationvarsf ""
attr measurement ""
attr network RoutingScenario
attr processid 6706
attr repetition 0
attr replication #0
attr resultdir results
attr runnumber 0
attr seedset 0
param *.visualizer.*.obstacleLossVisualizer.displayIntersections true
param *.visualizer.*.obstacleLossVisualizer.displayFaceNormalVectors true
param *.visualizer.*.obstacleLossVisualizer.intersectionLineColor "\"yellow\""
param *.visualizer.*.mediumVisualizer.signalPropagationAnimationSpeed 500/3e8
param *.visualizer.*.mediumVisualizer.signalTransmissionAnimationSpeed 50000/3e8
param *.visualizer.*.mediumVisualizer.displaySignals true
param *.visualizer.canvasVisualizer.mediumVisualizer.displaySignalDepartures false
param *.visualizer.canvasVisualizer.mediumVisualizer.displaySignalArrivals false
param *.visualizer.*.physicalLinkVisualizer.displayLinks true
param *.visualizer.*.mobilityVisualizer.displayPositions true
param *.visualizer.*.mobilityVisualizer.displayOrientations true
param *.visualizer.*.mobilityVisualizer.displayVelocities true
param *.visualizer.*.mobilityVisualizer.displayMovementTrails true
param *.visualizer.*.mobilityVisualizer.moduleFilter "\"**.antenna.mobility\""
param *.node[1].router "\"SecureAodv\""
param *.node[2].router "\"SecureAodv\""
param *.node[*].router "\"SecureAodv\""
param RoutingScenario.numV 25
param *.node[*].numApps 1
param *.node[*].app[0].typename "\"UdpBasicApp\""
param *.node[*].app[0].destAddresses "\"node[*]\""
param *.node[*].app[0].destPort 5000
param *.node[*].app[0].messageLength 1000B
param *.node[*].app[0].sendInterval exponential(12ms)
param *.node[*].app[0].packetName "\"UDPData\""
param *.node[*].wlan[0].opMode "\"p\""
param *.node[*].wlan[0].radio.bandName "\"5.9 GHz\""
param *.node[*].wlan[0].radio.channelNumber 3
param *.node[*].wlan[0].radio.transmitter.power 20mW
param *.node[*].wlan[0].radio.bandwidth "10 MHz"
param *.node[*].ipv4.configurator.typename "\"HostAutoConfigurator\""
param *.node[*].ipv4.configurator.interfaces "\"wlan0\""
param *.node[*].ipv4.configurator.mcastGroups "\"224.0.0.1\""
param *.node[*].mobility.typename "\"VeinsInetMobility\""
param *.node[*].mobility.speed 20mps
param *.manager.updateInterval 0.1s
param *.manager.host "\"localhost\""
param *.manager.port 9999
param *.manager.autoShutdown true
param *.manager.launchConfig "xmldoc(\"downtown.launchd.xml\")"
param *.manager.moduleType "\"vanetnetsec.veins_inet.VeinsInetRoutingCar\""
param *.physicalEnvironment.config "xmldoc(\"obstacles.xml\")"
param *.radioMedium.obstacleLoss.typename "\"IdealObstacleLoss\""

vector 0 RoutingScenario.node[0].wlan[0].radio radioMode:vector ETV
attr interpolationmode sample-hold
attr source radioModeChanged
attr title "Radio mode, vector"
vector 1 RoutingScenario.node[0].wlan[0].radio radioChannel:vector ETV
attr interpolationmode sample-hold
attr source radioChannelChanged
attr title "Radio channel, vector"
vector 2 RoutingScenario.node[0].wlan[0].radio receptionState:vector ETV
attr interpolationmode sample-hold
attr source receptionStateChanged
attr title "Radio reception state, vector"
vector 3 RoutingScenario.node[0].wlan[0].mac.dcf.recoveryProcedure contentionWindowChanged:vector ETV
attr interpolationmode sample-hold
attr title "contention window, vector"
vector 4 RoutingScenario.node[0].app[0] packetSent:vector(packetBytes) ETV
attr interpolationmode none
attr source packetSent
attr title "packets sent, vector(packetBytes)"
vector 5 RoutingScenario.node[0].udp packetSent:vector(packetBytes) ETV
attr interpolationmode none
attr source packetSent
attr title "packets sent, vector(packetBytes)"
vector 6 RoutingScenario.node[0].lo[0].lo rcvdPkFromHl:vector(packetBytes) ETV
attr interpolationmode none
attr source packetReceivedFromUpper
attr title "packets received from higher layer, vector(packetBytes)"
vector 7 RoutingScenario.node[0].lo[0].lo passedUpPk:vector(packetBytes) ETV
attr interpolationmode none
attr source packetSentToUpper
attr title "packets passed to higher layer, vector(packetBytes)"
vector 8 RoutingScenario.node[0].udp packetReceived:vector(packetBytes) ETV
attr interpolationmode none
attr source packetReceived
attr title "packets received, vector(packetBytes)"
vector 9 RoutingScenario.node[0].udp droppedPkWrongPort:vector(count) ETV
attr interpolationmode none
attr source packetDropReasonIsNoPortFound(packetDropped)
attr title "packets dropped (wrong port), vector(count)"
vector 10 RoutingScenario.node[1].wlan[0].radio radioMode:vector ETV
attr interpolationmode sample-hold
attr source radioModeChanged
attr title "Radio mode, vector"
vector 11 RoutingScenario.node[1].wlan[0].radio radioChannel:vector ETV
attr interpolationmode sample-hold
attr source radioChannelChanged
attr title "Radio channel, vector"
vector 12 RoutingScenario.node[1].wlan[0].radio receptionState:vector ETV
attr interpolationmode sample-hold
attr source receptionStateChanged
attr title "Radio reception state, vector"
vector 13 RoutingScenario.node[1].wlan[0].mac.dcf.recoveryProcedure contentionWindowChanged:vector ETV
attr interpolationmode sample-hold
attr title "contention window, vector"
vector 14 RoutingScenario.node[1].app[0] packetSent:vector(packetBytes) ETV
attr interpolationmode none
attr source packetSent
attr title "packets sent, vector(packetBytes)"
vector 15 RoutingScenario.node[1].udp packetSent:vector(packetBytes) ETV
attr interpolationmode none
attr source packetSent
attr title "packets sent, vector(packetBytes)"
vector 16 RoutingScenario.node[1].wlan[0].mac packetReceivedFromUpper:vector(packetBytes) ETV
attr interpolationmode none
attr title "packets received from upper layer, vector(packetBytes)"
vector 17 RoutingScenario.node[1].wlan[0].mac.dcf.channelAccess.pendingQueue packetPushed:vector(packetBytes) ETV
attr interpolationmode none
attr title "packet pushed, vector(packetBytes)"
vector 18 RoutingScenario.node[1].wlan[0].mac.dcf.channelAccess.pendingQueue queueLength:vector ETV
attr interpolationmode sample-hold
attr source "count(packetPushed) - count(packetPopped) - count(packetRemoved) - count(packetDropped)"
attr title "queue length, vector"
vector 19 RoutingScenario.node[1].wlan[0].mac.dcf.channelAccess.contention backoffPeriodGenerated:vector ETV
attr interpolationmode none
attr title "backoff periods, vector"
vector 20 RoutingScenario.node[1].wlan[0].mac.dcf.channelAccess.contention backoffActive:vector ETV
attr interpolationmode sample-hold
attr source count(backoffStarted)-count(backoffStopped)
attr title "backoff active, vector"
vector 21 RoutingScenario.node[1].wlan[0].mac.dcf.channelAccess.pendingQueue packetPopped:vector(packetBytes) ETV
attr interpolationmode none
attr title "packet popped, vector(packetBytes)"
vector 22 RoutingScenario.node[1].wlan[0].mac.dcf.channelAccess.pendingQueue queueingTime:vector ETV
attr interpolationmode none
attr source queueingTime(packetPopped)
attr title "queueing times, vector"
attr unit s
vector 23 RoutingScenario.node[1].wlan[0].mac.dcf.channelAccess.inProgressFrames queueLength:vector ETV
attr interpolationmode sample-hold
attr source "count(packetEnqueued) - count(packetDequeued)"
attr title "queue length, vector"
vector 24 RoutingScenario.node[1].wlan[0].mac.dcf datarateSelected:vector ETV
attr interpolationmode none
attr title "datarates selected, vector"
vector 25 RoutingScenario.node[1].wlan[0].mac packetSentToLower:vector(packetBytes) ETV
attr interpolationmode none
attr title "packets sent to lower layer, vector(packetBytes)"
vector 26 RoutingScenario.node[1].wlan[0].mac.dcf frameSequenceActive:vector ETV
attr interpolationmode sample-hold
attr source count(frameSequenceStarted)-count(frameSequenceFinished)
attr title "frame sequence active, vector"
vector 27 RoutingScenario.node[1].wlan[0].radio transmissionState:vector ETV
attr interpolationmode sample-hold
attr source transmissionStateChanged
attr title "Radio transmission state, vector"
vector 28 RoutingScenario.node[1].wlan[0].mac.dcf packetSentToPeer:vector(packetBytes) ETV
attr interpolationmode none
attr title "packets sent, vector(packetBytes)"
vector 29 RoutingScenario.node[1].wlan[0].mac.dcf packetSentToPeerMulticast:vector(packetBytes) ETV
attr interpolationmode none
attr source ieee80211Multicast(packetSentToPeer)
attr title "packets sent: multicast, vector(packetBytes)"
vector 30 RoutingScenario.node[1].wlan[0].mac.dcf packetSentToPeerBroadcast:vector(packetBytes) ETV
attr interpolationmode none
attr source ieee80211Broadcast(packetSentToPeer)
attr title "packets sent: broadcast , vector(packetBytes)"
vector 31 RoutingScenario.node[1].wlan[0].mac.dcf packetSentToPeerWithoutRetry:vector(packetBytes) ETV
attr interpolationmode none
attr source ieee80211NotRetry(packetSentToPeer)
attr title "packets sent: without retry, vector(packetBytes)"
vector 32 RoutingScenario.node[1].wlan[0].mac.dcf.channelAccess.inProgressFrames queueingTime:vector ETV
attr interpolationmode none
attr source queueingTime(packetDequeued)
attr title "queueing times, vector"
vector 33 RoutingScenario.node[2].wlan[0].radio radioMode:vector ETV
attr interpolationmode sample-hold
attr source radioModeChanged
attr title "Radio mode, vector"
vector 34 RoutingScenario.node[2].wlan[0].radio radioChannel:vector ETV
attr interpolationmode sample-hold
attr source radioChannelChanged
attr title "Radio channel, vector"
vector 35 RoutingScenario.node[2].wlan[0].radio receptionState:vector ETV
attr interpolationmode sample-hold
attr source receptionStateChanged
attr title "Radio reception state, vector"
vector 36 RoutingScenario.node[2].wlan[0].mac.dcf.recoveryProcedure contentionWindowChanged:vector ETV
attr interpolationmode sample-hold
attr title "contention window, vector"
vector 37 RoutingScenario.node[2].app[0] packetSent:vector(packetBytes) ETV
attr interpolationmode none
attr source packetSent
attr title "packets sent, vector(packetBytes)"
vector 38 RoutingScenario.node[2].udp packetSent:vector(packetBytes) ETV
attr interpolationmode none
attr source packetSent
attr title "packets sent, vector(packetBytes)"
vector 39 RoutingScenario.node[2].wlan[0].mac packetReceivedFromUpper:vector(packetBytes) ETV
attr interpolationmode none
attr title "packets received from upper layer, vector(packetBytes)"
vector 40 RoutingScenario.node[2].wlan[0].mac.dcf.channelAccess.pendingQueue packetPushed:vector(packetBytes) ETV
attr interpolationmode none
attr title "packet pushed, vector(packetBytes)"
vector 41 RoutingScenario.node[2].wlan[0].mac.dcf.channelAccess.pendingQueue queueLength:vector ETV
attr interpolationmode sample-hold
attr source "count(packetPushed) - count(packetPopped) - count(packetRemoved) - count(packetDropped)"
attr title "queue length, vector"
vector 42 RoutingScenario.node[2].wlan[0].mac.dcf.channelAccess.contention backoffPeriodGenerated:vector ETV
attr interpolationmode none
attr title "backoff periods, vector"
vector 43 RoutingScenario.node[2].wlan[0].mac.dcf.channelAccess.contention backoffActive:vector ETV
attr interpolationmode sample-hold
attr source count(backoffStarted)-count(backoffStopped)
attr title "backoff active, vector"
vector 44 RoutingScenario.node[2].wlan[0].mac.dcf.channelAccess.pendingQueue packetPopped:vector(packetBytes) ETV
attr interpolationmode none
attr title "packet popped, vector(packetBytes)"
vector 45 RoutingScenario.node[2].wlan[0].mac.dcf.channelAccess.pendingQueue queueingTime:vector ETV
attr interpolationmode none
attr source queueingTime(packetPopped)
attr title "queueing times, vector"
attr unit s
vector 46 RoutingScenario.node[2].wlan[0].mac.dcf.channelAccess.inProgressFrames queueLength:vector ETV
attr interpolationmode sample-hold
attr source "count(packetEnqueued) - count(packetDequeued)"
attr title "queue length, vector"
vector 47 RoutingScenario.node[2].wlan[0].mac.dcf datarateSelected:vector ETV
attr interpolationmode none
attr title "datarates selected, vector"
vector 48 RoutingScenario.node[2].wlan[0].mac packetSentToLower:vector(packetBytes) ETV
attr interpolationmode none
attr title "packets sent to lower layer, vector(packetBytes)"
vector 49 RoutingScenario.node[2].wlan[0].mac.dcf frameSequenceActive:vector ETV
attr interpolationmode sample-hold
attr source count(frameSequenceStarted)-count(frameSequenceFinished)
attr title "frame sequence active, vector"
vector 50 RoutingScenario.node[2].wlan[0].radio transmissionState:vector ETV
attr interpolationmode sample-hold
attr source transmissionStateChanged
attr title "Radio transmission state, vector"
vector 51 RoutingScenario.node[2].wlan[0].mac.dcf packetSentToPeer:vector(packetBytes) ETV
attr interpolationmode none
attr title "packets sent, vector(packetBytes)"
vector 52 RoutingScenario.node[2].wlan[0].mac.dcf packetSentToPeerMulticast:vector(packetBytes) ETV
attr interpolationmode none
attr source ieee80211Multicast(packetSentToPeer)
attr title "packets sent: multicast, vector(packetBytes)"
vector 53 RoutingScenario.node[2].wlan[0].mac.dcf packetSentToPeerBroadcast:vector(packetBytes) ETV
attr interpolationmode none
attr source ieee80211Broadcast(packetSentToPeer)
attr title "packets sent: broadcast , vector(packetBytes)"
vector 54 RoutingScenario.node[2].wlan[0].mac.dcf packetSentToPeerWithoutRetry:vector(packetBytes) ETV
attr interpolationmode none
attr source ieee80211NotRetry(packetSentToPeer)
attr title "packets sent: without retry, vector(packetBytes)"
vector 55 RoutingScenario.node[2].wlan[0].mac.dcf.channelAccess.inProgressFrames queueingTime:vector ETV
attr interpolationmode none
attr source queueingTime(packetDequeued)
attr title "queueing times, vector"
vector 56 RoutingScenario.node[0].wlan[0].mac packetReceivedFromLower:vector(packetBytes) ETV
attr interpolationmode none
attr title "packets received from lower layer, vector(packetBytes)"
vector 57 RoutingScenario.node[0].wlan[0].mac.dcf packetReceivedFromPeer:vector(packetBytes) ETV
attr interpolationmode none
attr title "packets received, vector(packetBytes)"
vector 58 RoutingScenario.node[0].wlan[0].mac.dcf packetReceivedFromPeerMulticast:vector(packetBytes) ETV
attr interpolationmode none
attr source ieee80211Multicast(packetReceivedFromPeer)
attr title "packets received: multicast, vector(packetBytes)"
vector 59 RoutingScenario.node[0].wlan[0].mac.dcf packetReceivedFromPeerBroadcast:vector(packetBytes) ETV
attr interpolationmode none
attr source ieee80211Broadcast(packetReceivedFromPeer)
attr title "packets received: broadcast, vector(packetBytes)"
vector 60 RoutingScenario.node[0].wlan[0].mac.dcf packetReceivedFromPeerWithoutRetry:vector(packetBytes) ETV
attr interpolationmode none
attr source ieee80211NotRetry(packetReceivedFromPeer)
attr title "packets received: without retry, vector(packetBytes)"
vector 61 RoutingScenario.node[0].wlan[0].mac packetSentToUpper:vector(packetBytes) ETV
attr interpolationmode none
attr title "packets sent to upper layer, vector(packetBytes)"
vector 62 RoutingScenario.node[0].udp passedUpPk:vector(count) ETV
attr interpolationmode none
attr source packetSentToUpper
attr title "packets passed up, vector(count)"
vector 63 RoutingScenario.node[0].ipv4.arp arpRequestSent:vector(packetBytes) ETV
attr source arpRequestSent
attr title "ARP request sent, vector(packetBytes)"
vector 64 RoutingScenario.node[0].wlan[0].mac packetReceivedFromUpper:vector(packetBytes) ETV
attr interpolationmode none
attr title "packets received from upper layer, vector(packetBytes)"
vector 65 RoutingScenario.node[0].wlan[0].mac.dcf.channelAccess.pendingQueue packetPushed:vector(packetBytes) ETV
attr interpolationmode none
attr title "packet pushed, vector(packetBytes)"
vector 66 RoutingScenario.node[0].wlan[0].mac.dcf.channelAccess.pendingQueue queueLength:vector ETV
attr interpolationmode sample-hold
attr source "count(packetPushed) - count(packetPopped) - count(packetRemoved) - count(packetDropped)"
attr title "queue length, vector"
vector 67 RoutingScenario.node[0].wlan[0].mac.dcf.channelAccess.contention backoffPeriodGenerated:vector ETV
attr interpolationmode none
attr title "backoff periods, vector"
vector 68 RoutingScenario.node[0].wlan[0].mac.dcf.channelAccess.contention backoffActive:vector ETV
attr interpolationmode sample-hold
attr source count(backoffStarted)-count(backoffStopped)
attr title "backoff active, vector"
vector 69 RoutingScenario.node[0].wlan[0].mac.dcf.channelAccess.pendingQueue packetPopped:vector(packetBytes) ETV
attr interpolationmode none
attr title "packet popped, vector(packetBytes)"
vector 70 RoutingScenario.node[0].wlan[0].mac.dcf.channelAccess.pendingQueue queueingTime:vector ETV
attr interpolationmode none
attr source queueingTime(packetPopped)
attr title "queueing times, vector"
attr unit s
vector 71 RoutingScenario.node[0].wlan[0].mac.dcf.channelAccess.inProgressFrames queueLength:vector ETV
attr interpolationmode sample-hold
attr source "count(packetEnqueued) - count(packetDequeued)"
attr title "queue length, vector"
vector 72 RoutingScenario.node[0].wlan[0].mac.dcf datarateSelected:vector ETV
attr interpolationmode none
attr title "datarates selected, vector"
vector 73 RoutingScenario.node[0].wlan[0].mac packetSentToLower:vector(packetBytes) ETV
attr interpolationmode none
attr title "packets sent to lower layer, vector(packetBytes)"
vector 74 RoutingScenario.node[0].wlan[0].mac.dcf frameSequenceActive:vector ETV
attr interpolationmode sample-hold
attr source count(frameSequenceStarted)-count(frameSequenceFinished)
attr title "frame sequence active, vector"
vector 75 RoutingScenario.node[0].wlan[0].radio transmissionState:vector ETV
attr interpolationmode sample-hold
attr source transmissionStateChanged
attr title "Radio transmission state, vector"
vector 76 RoutingScenario.node[0].wlan[0].mac.dcf packetSentToPeer:vector(packetBytes) ETV
attr interpolationmode none
attr title "packets sent, vector(packetBytes)"
vector 77 RoutingScenario.node[0].wlan[0].mac.dcf packetSentToPeerMulticast:vector(packetBytes) ETV
attr interpolationmode none
attr source ieee80211Multicast(packetSentToPeer)
attr title "packets sent: multicast, vector(packetBytes)"
vector 78 RoutingScenario.node[0].wlan[0].mac.dcf packetSentToPeerBroadcast:vector(packetBytes) ETV
attr interpolationmode none
attr source ieee80211Broadcast(packetSentToPeer)
attr title "packets sent: broadcast , vector(packetBytes)"
vector 79 RoutingScenario.node[0].wlan[0].mac.dcf packetSentToPeerWithoutRetry:vector(packetBytes) ETV
attr interpolationmode none
attr source ieee80211NotRetry(packetSentToPeer)
attr title "packets sent: without retry, vector(packetBytes)"
vector 80 RoutingScenario.node[0].wlan[0].mac.dcf.channelAccess.inProgressFrames queueingTime:vector ETV
attr interpolationmode none
attr source queueingTime(packetDequeued)
attr title "queueing times, vector"
vector 81 RoutingScenario.node[2].wlan[0].mac packetReceivedFromLower:vector(packetBytes) ETV
attr interpolationmode none
attr title "packets received from lower layer, vector(packetBytes)"
vector 82 RoutingScenario.node[2].wlan[0].mac.dcf packetReceivedFromPeer:vector(packetBytes) ETV
attr interpolationmode none
attr title "packets received, vector(packetBytes)"
vector 83 RoutingScenario.node[2].wlan[0].mac.dcf packetReceivedFromPeerMulticast:vector(packetBytes) ETV
attr interpolationmode none
attr source ieee80211Multicast(packetReceivedFromPeer)
attr title "packets received: multicast, vector(packetBytes)"
vector 84 RoutingScenario.node[2].wlan[0].mac.dcf packetReceivedFromPeerBroadcast:vector(packetBytes) ETV
attr interpolationmode none
attr source ieee80211Broadcast(packetReceivedFromPeer)
attr title "packets received: broadcast, vector(packetBytes)"
vector 85 RoutingScenario.node[2].wlan[0].mac.dcf packetReceivedFromPeerWithoutRetry:vector(packetBytes) ETV
attr interpolationmode none
attr source ieee80211NotRetry(packetReceivedFromPeer)
attr title "packets received: without retry, vector(packetBytes)"
vector 86 RoutingScenario.node[2].wlan[0].mac packetSentToUpper:vector(packetBytes) ETV
attr interpolationmode none
attr title "packets sent to upper layer, vector(packetBytes)"
vector 87 RoutingScenario.node[2].ipv4.arp arpReplySent:vector(packetBytes) ETV
attr source arpReplySent
attr title "ARP replies sent, vector(packetBytes)"
vector 88 RoutingScenario.node[2].wlan[0].mac.dcf packetSentToPeerUnicast:vector(packetBytes) ETV
attr interpolationmode none
attr source ieee80211Unicast(packetSentToPeer)
attr title "packets sent: unicast, vector(packetBytes)"
vector 89 RoutingScenario.node[2].wlan[0].mac.rx nav:vector ETV
attr interpolationmode linear
attr source navChanged
attr title "network allocation vector, vector"
vector 90 RoutingScenario.node[0].wlan[0].mac.dcf packetReceivedFromPeerUnicast:vector(packetBytes) ETV
attr interpolationmode none
attr source ieee80211Unicast(packetReceivedFromPeer)
attr title "packets received: unicast, vector(packetBytes)"
vector 91 RoutingScenario.node[0].wlan[0].mac.dcf packetSentToPeerUnicast:vector(packetBytes) ETV
attr interpolationmode none
attr source ieee80211Unicast(packetSentToPeer)
attr title "packets sent: unicast, vector(packetBytes)"
vector 92 RoutingScenario.node[2].wlan[0].mac.dcf packetReceivedFromPeerUnicast:vector(packetBytes) ETV
attr interpolationmode none
attr source ieee80211Unicast(packetReceivedFromPeer)
attr title "packets received: unicast, vector(packetBytes)"
vector 93 RoutingScenario.node[0].wlan[0].mac.rx nav:vector ETV
attr interpolationmode linear
attr source navChanged
attr title "network allocation vector, vector"
vector 94 RoutingScenario.node[2].udp packetReceived:vector(packetBytes) ETV
attr interpolationmode none
attr source packetReceived
attr title "packets received, vector(packetBytes)"
vector 95 RoutingScenario.node[2].udp passedUpPk:vector(count) ETV
attr interpolationmode none
attr source packetSentToUpper
attr title "packets passed up, vector(count)"
vector 96 RoutingScenario.node[3].wlan[0].radio radioMode:vector ETV
attr interpolationmode sample-hold
attr source radioModeChanged
attr title "Radio mode, vector"
vector 97 RoutingScenario.node[3].wlan[0].radio radioChannel:vector ETV
attr interpolationmode sample-hold
attr source radioChannelChanged
attr title "Radio channel, vector"
vector 98 RoutingScenario.node[3].wlan[0].radio receptionState:vector ETV
attr interpolationmode sample-hold
attr source receptionStateChanged
attr title "Radio reception state, vector"
vector 99 RoutingScenario.node[3].wlan[0].mac.dcf.recoveryProcedure contentionWindowChanged:vector ETV
attr interpolationmode sample-hold
attr title "contention window, vector"
vector 100 RoutingScenario.node[3].app[0] packetSent:vector(packetBytes) ETV
attr interpolationmode none
attr source packetSent
attr title "packets sent, vector(packetBytes)"
vector 101 RoutingScenario.node[3].udp packetSent:vector(packetBytes) ETV
attr interpolationmode none
attr source packetSent
attr title "packets sent, vector(packetBytes)"
vector 102 RoutingScenario.node[3].wlan[0].mac packetReceivedFromUpper:vector(packetBytes) ETV
attr interpolationmode none
attr title "packets received from upper layer, vector(packetBytes)"
vector 103 RoutingScenario.node[3].wlan[0].mac.dcf.channelAccess.pendingQueue packetPushed:vector(packetBytes) ETV
attr interpolationmode none
attr title "packet pushed, vector(packetBytes)"
vector 104 RoutingScenario.node[3].wlan[0].mac.dcf.channelAccess.pendingQueue queueLength:vector ETV
attr interpolationmode sample-hold
attr source "count(packetPushed) - count(packetPopped) - count(packetRemoved) - count(packetDropped)"
attr title "queue length, vector"
vector 105 RoutingScenario.node[3].wlan[0].mac.dcf.channelAccess.contention backoffPeriodGenerated:vector ETV
attr interpolationmode none
attr title "backoff periods, vector"
vector 106 RoutingScenario.node[3].wlan[0].mac.dcf.channelAccess.contention backoffActive:vector ETV
attr interpolationmode sample-hold
attr source count(backoffStarted)-count(backoffStopped)
attr title "backoff active, vector"
vector 107 RoutingScenario.node[3].wlan[0].mac.dcf.channelAccess.pendingQueue packetPopped:vector(packetBytes) ETV
attr interpolationmode none
attr title "packet popped, vector(packetBytes)"
vector 108 RoutingScenario.node[3].wlan[0].mac.dcf.channelAccess.pendingQueue queueingTime:vector ETV
attr interpolationmode none
attr source queueingTime(packetPopped)
attr title "queueing times, vector"
attr unit s
vector 109 RoutingScenario.node[3].wlan[0].mac.dcf.channelAccess.inProgressFrames queueLength:vector ETV
attr interpolationmode sample-hold
attr source "count(packetEnqueued) - count(packetDequeued)"
attr title "queue length, vector"
vector 110 RoutingScenario.node[3].wlan[0].mac.dcf datarateSelected:vector ETV
attr interpolationmode none
attr title "datarates selected, vector"
vector 111 RoutingScenario.node[3].wlan[0].mac packetSentToLower:vector(packetBytes) ETV
attr interpolationmode none
attr title "packets sent to lower layer, vector(packetBytes)"
vector 112 RoutingScenario.node[3].wlan[0].mac.dcf frameSequenceActive:vector ETV
attr interpolationmode sample-hold
attr source count(frameSequenceStarted)-count(frameSequenceFinished)
attr title "frame sequence active, vector"
vector 113 RoutingScenario.node[3].wlan[0].radio transmissionState:vector ETV
attr interpolationmode sample-hold
attr source transmissionStateChanged
attr title "Radio transmission state, vector"
vector 114 RoutingScenario.node[3].wlan[0].mac.dcf packetSentToPeer:vector(packetBytes) ETV
attr interpolationmode none
attr title "packets sent, vector(packetBytes)"
vector 115 RoutingScenario.node[3].wlan[0].mac.dcf packetSentToPeerMulticast:vector(packetBytes) ETV
attr interpolationmode none
attr source ieee80211Multicast(packetSentToPeer)
attr title "packets sent: multicast, vector(packetBytes)"
vector 116 RoutingScenario.node[3].wlan[0].mac.dcf packetSentToPeerBroadcast:vector(packetBytes) ETV
attr interpolationmode none
attr source ieee80211Broadcast(packetSentToPeer)
attr title "packets sent: broadcast , vector(packetBytes)"
vector 117 RoutingScenario.node[3].wlan[0].mac.dcf packetSentToPeerWithoutRetry:vector(packetBytes) ETV
attr interpolationmode none
attr source ieee80211NotRetry(packetSentToPeer)
attr title "packets sent: without retry, vector(packetBytes)"
vector 118 RoutingScenario.node[3].wlan[0].mac.dcf.channelAccess.inProgressFrames queueingTime:vector ETV
attr interpolationmode none
attr source queueingTime(packetDequeued)
attr title "queueing times, vector"
vector 119 RoutingScenario.node[2].ipv4.arp arpRequestSent:vector(packetBytes) ETV
attr source arpRequestSent
attr title "ARP request sent, vector(packetBytes)"
vector 120 RoutingScenario.node[3].wlan[0].mac packetReceivedFromLower:vector(packetBytes) ETV
attr interpolationmode none
attr title "packets received from lower layer, vector(packetBytes)"
vector 121 RoutingScenario.node[3].wlan[0].mac.dcf packetReceivedFromPeer:vector(packetBytes) ETV
attr interpolationmode none
attr title "packets received, vector(packetBytes)"
vector 122 RoutingScenario.node[3].wlan[0].mac.dcf packetReceivedFromPeerMulticast:vector(packetBytes) ETV
attr interpolationmode none
attr source ieee80211Multicast(packetReceivedFromPeer)
attr title "packets received: multicast, vector(packetBytes)"
vector 123 RoutingScenario.node[3].wlan[0].mac.dcf packetReceivedFromPeerBroadcast:vector(packetBytes) ETV
attr interpolationmode none
attr source ieee80211Broadcast(packetReceivedFromPeer)
attr title "packets received: broadcast, vector(packetBytes)"
vector 124 RoutingScenario.node[3].wlan[0].mac.dcf packetReceivedFromPeerWithoutRetry:vector(packetBytes) ETV
attr interpolationmode none
attr source ieee80211NotRetry(packetReceivedFromPeer)
attr title "packets received: without retry, vector(packetBytes)"
vector 125 RoutingScenario.node[3].wlan[0].mac packetSentToUpper:vector(packetBytes) ETV
attr interpolationmode none
attr title "packets sent to upper layer, vector(packetBytes)"
vector 126 RoutingScenario.node[3].ipv4.arp arpReplySent:vector(packetBytes) ETV
attr source arpReplySent
attr title "ARP replies sent, vector(packetBytes)"
vector 127 RoutingScenario.node[3].wlan[0].mac.dcf packetSentToPeerUnicast:vector(packetBytes) ETV
attr interpolationmode none
attr source ieee80211Unicast(packetSentToPeer)
attr title "packets sent: unicast, vector(packetBytes)"
vector 128 RoutingScenario.node[3].wlan[0].mac.rx nav:vector ETV
attr interpolationmode linear
attr source navChanged
attr title "network allocation vector, vector"
vector 129 RoutingScenario.node[3].wlan[0].mac.dcf packetReceivedFromPeerUnicast:vector(packetBytes) ETV
attr interpolationmode none
attr source ieee80211Unicast(packetReceivedFromPeer)
attr title "packets received: unicast, vector(packetBytes)"
vector 130 RoutingScenario.node[0].wlan[0].mac.dcf packetDrop:vector(packetBytes) ETV
attr interpolationmode none
attr source packetDropped
attr title "packet drops, vector(packetBytes)"
vector 131 RoutingScenario.node[0].wlan[0].mac.dcf packetDropNotAddressedToUs:vector(packetBytes) ETV
attr interpolationmode none
attr source packetDropReasonIsNotAddressedToUs(packetDropped)
attr title "packet drops: not addressed to us, vector(packetBytes)"
vector 132 RoutingScenario.node[0].wlan[0].mac packetDrop:vector(packetBytes) ETV
attr interpolationmode none
attr source packetDropped
attr title "packet drops, vector(packetBytes)"
vector 133 RoutingScenario.node[0].wlan[0].mac packetDropNotAddressedToUs:vector(packetBytes) ETV
attr interpolationmode none
attr source packetDropReasonIsNotAddressedToUs(packetDropped)
attr title "packet drops: not addressed to us, vector(packetBytes)"
vector 134 RoutingScenario.node[3].udp packetReceived:vector(packetBytes) ETV
attr interpolationmode none
attr source packetReceived
attr title "packets received, vector(packetBytes)"
vector 135 RoutingScenario.node[3].udp passedUpPk:vector(count) ETV
attr interpolationmode none
attr source packetSentToUpper
attr title "packets passed up, vector(count)"
vector 136 RoutingScenario.node[3].wlan[0].mac.dcf packetDrop:vector(packetBytes) ETV
attr interpolationmode none
attr source packetDropped
attr title "packet drops, vector(packetBytes)"
vector 137 RoutingScenario.node[3].wlan[0].mac.dcf packetDropNotAddressedToUs:vector(packetBytes) ETV
attr interpolationmode none
attr source packetDropReasonIsNotAddressedToUs(packetDropped)
attr title "packet drops: not addressed to us, vector(packetBytes)"
vector 138 RoutingScenario.node[3].wlan[0].mac packetDrop:vector(packetBytes) ETV
attr interpolationmode none
attr source packetDropped
attr title "packet drops, vector(packetBytes)"
vector 139 RoutingScenario.node[3].wlan[0].mac packetDropNotAddressedToUs:vector(packetBytes) ETV
attr interpolationmode none
attr source packetDropReasonIsNotAddressedToUs(packetDropped)
attr title "packet drops: not addressed to us, vector(packetBytes)"
vector 140 RoutingScenario.node[2].wlan[0].mac packetDrop:vector(packetBytes) ETV
attr interpolationmode none
attr source packetDropped
attr title "packet drops, vector(packetBytes)"
vector 141 RoutingScenario.node[2].wlan[0].mac packetDropIncorrectlyReceived:vector(packetBytes) ETV
attr interpolationmode none
attr source packetDropReasonIsIncorrectlyReceived(packetDropped)
attr title "packet drops: incorrectly received, vector(packetBytes)"
vector 142 RoutingScenario.node[3].wlan[0].mac.dcf packetSentToPeerWithRetry:vector(packetBytes) ETV
attr interpolationmode none
attr source ieee80211Retry(packetSentToPeer)
attr title "packets sent: with retry, vector(packetBytes)"
vector 143 RoutingScenario.node[2].wlan[0].mac.dcf packetReceivedFromPeerWithRetry:vector(packetBytes) ETV
attr interpolationmode none
attr source ieee80211Retry(packetReceivedFromPeer)
attr title "packets received: with retry, vector(packetBytes)"
vector 144 RoutingScenario.node[0].wlan[0].mac.dcf packetSentToPeerWithRetry:vector(packetBytes) ETV
attr interpolationmode none
attr source ieee80211Retry(packetSentToPeer)
attr title "packets sent: with retry, vector(packetBytes)"
vector 145 RoutingScenario.node[0].wlan[0].mac.dcf packetDropRetryLimitReached:vector(packetBytes) ETV
attr interpolationmode none
attr source packetDropReasonIsRetryLimitReached(packetDropped)
attr title "packet drops: retry limit reached, vector(packetBytes)"
vector 146 RoutingScenario.node[0].wlan[0].mac packetDropRetryLimitReached:vector(packetBytes) ETV
attr interpolationmode none
attr source packetDropReasonIsRetryLimitReached(packetDropped)
attr title "packet drops: retry limit reached, vector(packetBytes)"
vector 147 RoutingScenario.node[0].wlan[0].mac packetDropIncorrectlyReceived:vector(packetBytes) ETV
attr interpolationmode none
attr source packetDropReasonIsIncorrectlyReceived(packetDropped)
attr title "packet drops: incorrectly received, vector(packetBytes)"
vector 148 RoutingScenario.node[2].wlan[0].mac.dcf.recipientMacDataService packetDropDuplicateDetected:vector(packetBytes) ETV
attr interpolationmode none
attr source packetDropReasonIsDuplicateDetected(packetDropped)
attr title "packet drops: duplicate detected, vector(packetBytes)"
vector 149 RoutingScenario.node[2].wlan[0].mac.dcf packetDrop:vector(packetBytes) ETV
attr interpolationmode none
attr source packetDropped
attr title "packet drops, vector(packetBytes)"
vector 150 RoutingScenario.node[2].wlan[0].mac packetDropDuplicateDetected:vector(packetBytes) ETV
attr interpolationmode none
attr source packetDropReasonIsDuplicateDetected(packetDropped)
attr title "packet drops: duplicate detected, vector(packetBytes)"
vector 151 RoutingScenario.node[4].wlan[0].radio radioMode:vector ETV
attr interpolationmode sample-hold
attr source radioModeChanged
attr title "Radio mode, vector"
vector 152 RoutingScenario.node[4].wlan[0].radio radioChannel:vector ETV
attr interpolationmode sample-hold
attr source radioChannelChanged
attr title "Radio channel, vector"
vector 153 RoutingScenario.node[4].wlan[0].radio receptionState:vector ETV
attr interpolationmode sample-hold
attr source receptionStateChanged
attr title "Radio reception state, vector"
vector 154 RoutingScenario.node[4].wlan[0].mac.dcf.recoveryProcedure contentionWindowChanged:vector ETV
attr interpolationmode sample-hold
attr title "contention window, vector"
vector 155 RoutingScenario.node[4].app[0] packetSent:vector(packetBytes) ETV
attr interpolationmode none
attr source packetSent
attr title "packets sent, vector(packetBytes)"
vector 156 RoutingScenario.node[4].udp packetSent:vector(packetBytes) ETV
attr interpolationmode none
attr source packetSent
attr title "packets sent, vector(packetBytes)"
vector 157 RoutingScenario.node[4].wlan[0].mac packetReceivedFromUpper:vector(packetBytes) ETV
attr interpolationmode none
attr title "packets received from upper layer, vector(packetBytes)"
vector 158 RoutingScenario.node[4].wlan[0].mac.dcf.channelAccess.pendingQueue packetPushed:vector(packetBytes) ETV
attr interpolationmode none
attr title "packet pushed, vector(packetBytes)"
vector 159 RoutingScenario.node[4].wlan[0].mac.dcf.channelAccess.pendingQueue queueLength:vector ETV
attr interpolationmode sample-hold
attr source "count(packetPushed) - count(packetPopped) - count(packetRemoved) - count(packetDropped)"
attr title "queue length, vector"
vector 160 RoutingScenario.node[4].wlan[0].mac.dcf.channelAccess.contention backoffPeriodGenerated:vector ETV
attr interpolationmode none
attr title "backoff periods, vector"
vector 161 RoutingScenario.node[4].wlan[0].mac.dcf.channelAccess.contention backoffActive:vector ETV
attr interpolationmode sample-hold
attr source count(backoffStarted)-count(backoffStopped)
attr title "backoff active, vector"
vector 162 RoutingScenario.node[4].wlan[0].mac.dcf.channelAccess.pendingQueue packetPopped:vector(packetBytes) ETV
attr interpolationmode none
attr title "packet popped, vector(packetBytes)"
vector 163 RoutingScenario.node[4].wlan[0].mac.dcf.channelAccess.pendingQueue queueingTime:vector ETV
attr interpolationmode none
attr source queueingTime(packetPopped)
attr title "queueing times, vector"
attr unit s
vector 164 RoutingScenario.node[4].wlan[0].mac.dcf.channelAccess.inProgressFrames queueLength:vector ETV
attr interpolationmode sample-hold
attr source "count(packetEnqueued) - count(packetDequeued)"
attr title "queue length, vector"
vector 165 RoutingScenario.node[4].wlan[0].mac.dcf datarateSelected:vector ETV
attr interpolationmode none
attr title "datarates selected, vector"
vector 166 RoutingScenario.node[4].wlan[0].mac packetSentToLower:vector(packetBytes) ETV
attr interpolationmode none
attr title "packets sent to lower layer, vector(packetBytes)"
vector 167 RoutingScenario.node[4].wlan[0].mac.dcf frameSequenceActive:vector ETV
attr interpolationmode sample-hold
attr source count(frameSequenceStarted)-count(frameSequenceFinished)
attr title "frame sequence active, vector"
vector 168 RoutingScenario.node[4].wlan[0].radio transmissionState:vector ETV
attr interpolationmode sample-hold
attr source transmissionStateChanged
attr title "Radio transmission state, vector"
vector 169 RoutingScenario.node[4].wlan[0].mac.dcf packetSentToPeer:vector(packetBytes) ETV
attr interpolationmode none
attr title "packets sent, vector(packetBytes)"
vector 170 RoutingScenario.node[4].wlan[0].mac.dcf packetSentToPeerMulticast:vector(packetBytes) ETV
attr interpolationmode none
attr source ieee80211Multicast(packetSentToPeer)
attr title "packets sent: multicast, vector(packetBytes)"
vector 171 RoutingScenario.node[4].wlan[0].mac.dcf packetSentToPeerBroadcast:vector(packetBytes) ETV
attr interpolationmode none
attr source ieee80211Broadcast(packetSentToPeer)
attr title "packets sent: broadcast , vector(packetBytes)"
vector 172 RoutingScenario.node[4].wlan[0].mac.dcf packetSentToPeerWithoutRetry:vector(packetBytes) ETV
attr interpolationmode none
attr source ieee80211NotRetry(packetSentToPeer)
attr title "packets sent: without retry, vector(packetBytes)"
vector 173 RoutingScenario.node[4].wlan[0].mac.dcf.channelAccess.inProgressFrames queueingTime:vector ETV
attr interpolationmode none
attr source queueingTime(packetDequeued)
attr title "queueing times, vector"
vector 174 RoutingScenario.node[3].wlan[0].mac packetDropIncorrectlyReceived:vector(packetBytes) ETV
attr interpolationmode none
attr source packetDropReasonIsIncorrectlyReceived(packetDropped)
attr title "packet drops: incorrectly received, vector(packetBytes)"
vector 175 RoutingScenario.node[5].wlan[0].radio radioMode:vector ETV
attr interpolationmode sample-hold
attr source radioModeChanged
attr title "Radio mode, vector"
vector 176 RoutingScenario.node[5].wlan[0].radio radioChannel:vector ETV
attr interpolationmode sample-hold
attr source radioChannelChanged
attr title "Radio channel, vector"
vector 177 RoutingScenario.node[5].wlan[0].radio receptionState:vector ETV
attr interpolationmode sample-hold
attr source receptionStateChanged
attr title "Radio reception state, vector"
vector 178 RoutingScenario.node[5].wlan[0].mac.dcf.recoveryProcedure contentionWindowChanged:vector ETV
attr interpolationmode sample-hold
attr title "contention window, vector"
vector 179 RoutingScenario.node[5].app[0] packetSent:vector(packetBytes) ETV
attr interpolationmode none
attr source packetSent
attr title "packets sent, vector(packetBytes)"
vector 180 RoutingScenario.node[5].udp packetSent:vector(packetBytes) ETV
attr interpolationmode none
attr source packetSent
attr title "packets sent, vector(packetBytes)"
vector 181 RoutingScenario.node[5].wlan[0].mac packetReceivedFromLower:vector(packetBytes) ETV
attr interpolationmode none
attr title "packets received from lower layer, vector(packetBytes)"
vector 182 RoutingScenario.node[5].wlan[0].mac.dcf packetDrop:vector(packetBytes) ETV
attr interpolationmode none
attr source packetDropped
attr title "packet drops, vector(packetBytes)"
vector 183 RoutingScenario.node[5].wlan[0].mac.dcf packetDropNotAddressedToUs:vector(packetBytes) ETV
attr interpolationmode none
attr source packetDropReasonIsNotAddressedToUs(packetDropped)
attr title "packet drops: not addressed to us, vector(packetBytes)"
vector 184 RoutingScenario.node[5].wlan[0].mac packetDrop:vector(packetBytes) ETV
attr interpolationmode none
attr source packetDropped
attr title "packet drops, vector(packetBytes)"
vector 185 RoutingScenario.node[5].wlan[0].mac packetDropNotAddressedToUs:vector(packetBytes) ETV
attr interpolationmode none
attr source packetDropReasonIsNotAddressedToUs(packetDropped)
attr title "packet drops: not addressed to us, vector(packetBytes)"
vector 186 RoutingScenario.node[5].wlan[0].mac.rx nav:vector ETV
attr interpolationmode linear
attr source navChanged
attr title "network allocation vector, vector"
vector 187 RoutingScenario.node[5].wlan[0].mac packetReceivedFromUpper:vector(packetBytes) ETV
attr interpolationmode none
attr title "packets received from upper layer, vector(packetBytes)"
vector 188 RoutingScenario.node[5].wlan[0].mac.dcf.channelAccess.pendingQueue packetPushed:vector(packetBytes) ETV
attr interpolationmode none
attr title "packet pushed, vector(packetBytes)"
vector 189 RoutingScenario.node[5].wlan[0].mac.dcf.channelAccess.pendingQueue queueLength:vector ETV
attr interpolationmode sample-hold
attr source "count(packetPushed) - count(packetPopped) - count(packetRemoved) - count(packetDropped)"
attr title "queue length, vector"
vector 190 RoutingScenario.node[5].wlan[0].mac.dcf.channelAccess.contention backoffPeriodGenerated:vector ETV
attr interpolationmode none
attr title "backoff periods, vector"
vector 191 RoutingScenario.node[5].wlan[0].mac.dcf.channelAccess.contention backoffActive:vector ETV
attr interpolationmode sample-hold
attr source count(backoffStarted)-count(backoffStopped)
attr title "backoff active, vector"
vector 192 RoutingScenario.node[5].wlan[0].mac.dcf.channelAccess.pendingQueue packetPopped:vector(packetBytes) ETV
attr interpolationmode none
attr title "packet popped, vector(packetBytes)"
vector 193 RoutingScenario.node[5].wlan[0].mac.dcf.channelAccess.pendingQueue queueingTime:vector ETV
attr interpolationmode none
attr source queueingTime(packetPopped)
attr title "queueing times, vector"
attr unit s
vector 194 RoutingScenario.node[5].wlan[0].mac.dcf.channelAccess.inProgressFrames queueLength:vector ETV
attr interpolationmode sample-hold
attr source "count(packetEnqueued) - count(packetDequeued)"
attr title "queue length, vector"
vector 195 RoutingScenario.node[5].wlan[0].mac.dcf datarateSelected:vector ETV
attr interpolationmode none
attr title "datarates selected, vector"
vector 196 RoutingScenario.node[5].wlan[0].mac packetSentToLower:vector(packetBytes) ETV
attr interpolationmode none
attr title "packets sent to lower layer, vector(packetBytes)"
vector 197 RoutingScenario.node[5].wlan[0].mac.dcf frameSequenceActive:vector ETV
attr interpolationmode sample-hold
attr source count(frameSequenceStarted)-count(frameSequenceFinished)
attr title "frame sequence active, vector"
vector 198 RoutingScenario.node[5].wlan[0].radio transmissionState:vector ETV
attr interpolationmode sample-hold
attr source transmissionStateChanged
attr title "Radio transmission state, vector"
vector 199 RoutingScenario.node[5].wlan[0].mac.dcf packetSentToPeer:vector(packetBytes) ETV
attr interpolationmode none
attr title "packets sent, vector(packetBytes)"
vector 200 RoutingScenario.node[5].wlan[0].mac.dcf packetSentToPeerMulticast:vector(packetBytes) ETV
attr interpolationmode none
attr source ieee80211Multicast(packetSentToPeer)
attr title "packets sent: multicast, vector(packetBytes)"
vector 201 RoutingScenario.node[5].wlan[0].mac.dcf packetSentToPeerBroadcast:vector(packetBytes) ETV
attr interpolationmode none
attr source ieee80211Broadcast(packetSentToPeer)
attr title "packets sent: broadcast , vector(packetBytes)"
vector 202 RoutingScenario.node[5].wlan[0].mac.dcf packetSentToPeerWithoutRetry:vector(packetBytes) ETV
attr interpolationmode none
attr source ieee80211NotRetry(packetSentToPeer)
attr title "packets sent: without retry, vector(packetBytes)"
vector 203 RoutingScenario.node[5].wlan[0].mac.dcf.channelAccess.inProgressFrames queueingTime:vector ETV
attr interpolationmode none
attr source queueingTime(packetDequeued)
attr title "queueing times, vector"
vector 204 RoutingScenario.node[4].wlan[0].mac packetReceivedFromLower:vector(packetBytes) ETV
attr interpolationmode none
attr title "packets received from lower layer, vector(packetBytes)"
vector 205 RoutingScenario.node[4].wlan[0].mac.dcf packetReceivedFromPeer:vector(packetBytes) ETV
attr interpolationmode none
attr title "packets received, vector(packetBytes)"
vector 206 RoutingScenario.node[4].wlan[0].mac.dcf packetReceivedFromPeerMulticast:vector(packetBytes) ETV
attr interpolationmode none
attr source ieee80211Multicast(packetReceivedFromPeer)
attr title "packets received: multicast, vector(packetBytes)"
vector 207 RoutingScenario.node[4].wlan[0].mac.dcf packetReceivedFromPeerBroadcast:vector(packetBytes) ETV
attr interpolationmode none
attr source ieee80211Broadcast(packetReceivedFromPeer)
attr title "packets received: broadcast, vector(packetBytes)"
vector 208 RoutingScenario.node[4].wlan[0].mac.dcf packetReceivedFromPeerWithoutRetry:vector(packetBytes) ETV
attr interpolationmode none
attr source ieee80211NotRetry(packetReceivedFromPeer)
attr title "packets received: without retry, vector(packetBytes)"
vector 209 RoutingScenario.node[4].wlan[0].mac packetSentToUpper:vector(packetBytes) ETV
attr interpolationmode none
attr title "packets sent to upper layer, vector(packetBytes)"
vector 210 RoutingScenario.node[4].udp packetReceived:vector(packetBytes) ETV
attr interpolationmode none
attr source packetReceived
attr title "packets received, vector(packetBytes)"
vector 211 RoutingScenario.node[4].udp passedUpPk:vector(count) ETV
attr interpolationmode none
attr source packetSentToUpper
attr title "packets passed up, vector(count)"
vector 212 RoutingScenario.node[1].wlan[0].mac packetReceivedFromLower:vector(packetBytes) ETV
attr interpolationmode none
attr title "packets received from lower layer, vector(packetBytes)"
vector 213 RoutingScenario.node[1].wlan[0].mac.dcf packetReceivedFromPeer:vector(packetBytes) ETV
attr interpolationmode none
attr title "packets received, vector(packetBytes)"
vector 214 RoutingScenario.node[1].wlan[0].mac.dcf packetReceivedFromPeerMulticast:vector(packetBytes) ETV
attr interpolationmode none
attr source ieee80211Multicast(packetReceivedFromPeer)
attr title "packets received: multicast, vector(packetBytes)"
vector 215 RoutingScenario.node[1].wlan[0].mac.dcf packetReceivedFromPeerBroadcast:vector(packetBytes) ETV
attr interpolationmode none
attr source ieee80211Broadcast(packetReceivedFromPeer)
attr title "packets received: broadcast, vector(packetBytes)"
vector 216 RoutingScenario.node[1].wlan[0].mac.dcf packetReceivedFromPeerWithoutRetry:vector(packetBytes) ETV
attr interpolationmode none
attr source ieee80211NotRetry(packetReceivedFromPeer)
attr title "packets received: without retry, vector(packetBytes)"
vector 217 RoutingScenario.node[1].wlan[0].mac packetSentToUpper:vector(packetBytes) ETV
attr interpolationmode none
attr title "packets sent to upper layer, vector(packetBytes)"
vector 218 RoutingScenario.node[1].udp packetReceived:vector(packetBytes) ETV
attr interpolationmode none
attr source packetReceived
attr title "packets received, vector(packetBytes)"
vector 219 RoutingScenario.node[1].udp passedUpPk:vector(count) ETV
attr interpolationmode none
attr source packetSentToUpper
attr title "packets passed up, vector(count)"
vector 220 RoutingScenario.node[5].wlan[0].mac.dcf packetReceivedFromPeer:vector(packetBytes) ETV
attr interpolationmode none
attr title "packets received, vector(packetBytes)"
vector 221 RoutingScenario.node[5].wlan[0].mac.dcf packetReceivedFromPeerMulticast:vector(packetBytes) ETV
attr interpolationmode none
attr source ieee80211Multicast(packetReceivedFromPeer)
attr title "packets received: multicast, vector(packetBytes)"
vector 222 RoutingScenario.node[5].wlan[0].mac.dcf packetReceivedFromPeerBroadcast:vector(packetBytes) ETV
attr interpolationmode none
attr source ieee80211Broadcast(packetReceivedFromPeer)
attr title "packets received: broadcast, vector(packetBytes)"
vector 223 RoutingScenario.node[5].wlan[0].mac.dcf packetReceivedFromPeerWithoutRetry:vector(packetBytes) ETV
attr interpolationmode none
attr source ieee80211NotRetry(packetReceivedFromPeer)
attr title "packets received: without retry, vector(packetBytes)"
vector 224 RoutingScenario.node[5].wlan[0].mac packetSentToUpper:vector(packetBytes) ETV
attr interpolationmode none
attr title "packets sent to upper layer, vector(packetBytes)"
vector 225 RoutingScenario.node[5].ipv4.arp arpReplySent:vector(packetBytes) ETV
attr source arpReplySent
attr title "ARP replies sent, vector(packetBytes)"
vector 226 RoutingScenario.node[5].wlan[0].mac.dcf packetSentToPeerUnicast:vector(packetBytes) ETV
attr interpolationmode none
attr source ieee80211Unicast(packetSentToPeer)
attr title "packets sent: unicast, vector(packetBytes)"
vector 227 RoutingScenario.node[4].wlan[0].mac packetDrop:vector(packetBytes) ETV
attr interpolationmode none
attr source packetDropped
attr title "packet drops, vector(packetBytes)"
vector 228 RoutingScenario.node[4].wlan[0].mac packetDropIncorrectlyReceived:vector(packetBytes) ETV
attr interpolationmode none
attr source packetDropReasonIsIncorrectlyReceived(packetDropped)
attr title "packet drops: incorrectly received, vector(packetBytes)"
vector 229 RoutingScenario.node[1].wlan[0].mac packetDrop:vector(packetBytes) ETV
attr interpolationmode none
attr source packetDropped
attr title "packet drops, vector(packetBytes)"
vector 230 RoutingScenario.node[1].wlan[0].mac packetDropIncorrectlyReceived:vector(packetBytes) ETV
attr interpolationmode none
attr source packetDropReasonIsIncorrectlyReceived(packetDropped)
attr title "packet drops: incorrectly received, vector(packetBytes)"
vector 231 RoutingScenario.node[5].wlan[0].mac.dcf packetSentToPeerWithRetry:vector(packetBytes) ETV
attr interpolationmode none
attr source ieee80211Retry(packetSentToPeer)
attr title "packets sent: with retry, vector(packetBytes)"
vector 232 RoutingScenario.node[5].wlan[0].mac packetDropIncorrectlyReceived:vector(packetBytes) ETV
attr interpolationmode none
attr source packetDropReasonIsIncorrectlyReceived(packetDropped)
attr title "packet drops: incorrectly received, vector(packetBytes)"
vector 233 RoutingScenario.node[4].wlan[0].mac.rx nav:vector ETV
attr interpolationmode linear
attr source navChanged
attr title "network allocation vector, vector"
vector 234 RoutingScenario.node[4].wlan[0].mac.dcf packetDrop:vector(packetBytes) ETV
attr interpolationmode none
attr source packetDropped
attr title "packet drops, vector(packetBytes)"
vector 235 RoutingScenario.node[4].wlan[0].mac.dcf packetDropNotAddressedToUs:vector(packetBytes) ETV
attr interpolationmode none
attr source packetDropReasonIsNotAddressedToUs(packetDropped)
attr title "packet drops: not addressed to us, vector(packetBytes)"
vector 236 RoutingScenario.node[4].wlan[0].mac packetDropNotAddressedToUs:vector(packetBytes) ETV
attr interpolationmode none
attr source packetDropReasonIsNotAddressedToUs(packetDropped)
attr title "packet drops: not addressed to us, vector(packetBytes)"
vector 237 RoutingScenario.node[1].wlan[0].mac.rx nav:vector ETV
attr interpolationmode linear
attr source navChanged
attr title "network allocation vector, vector"
vector 238 RoutingScenario.node[1].wlan[0].mac.dcf packetDrop:vector(packetBytes) ETV
attr interpolationmode none
attr source packetDropped
attr title "packet drops, vector(packetBytes)"
vector 239 RoutingScenario.node[1].wlan[0].mac.dcf packetDropNotAddressedToUs:vector(packetBytes) ETV
attr interpolationmode none
attr source packetDropReasonIsNotAddressedToUs(packetDropped)
attr title "packet drops: not addressed to us, vector(packetBytes)"
vector 240 RoutingScenario.node[1].wlan[0].mac packetDropNotAddressedToUs:vector(packetBytes) ETV
attr interpolationmode none
attr source packetDropReasonIsNotAddressedToUs(packetDropped)
attr title "packet drops: not addressed to us, vector(packetBytes)"
vector 241 RoutingScenario.node[2].wlan[0].mac.dcf packetDropNotAddressedToUs:vector(packetBytes) ETV
attr interpolationmode none
attr source packetDropReasonIsNotAddressedToUs(packetDropped)
attr title "packet drops: not addressed to us, vector(packetBytes)"
vector 242 RoutingScenario.node[2].wlan[0].mac packetDropNotAddressedToUs:vector(packetBytes) ETV
attr interpolationmode none
attr source packetDropReasonIsNotAddressedToUs(packetDropped)
attr title "packet drops: not addressed to us, vector(packetBytes)"
vector 243 RoutingScenario.node[0].wlan[0].mac.dcf packetReceivedFromPeerWithRetry:vector(packetBytes) ETV
attr interpolationmode none
attr source ieee80211Retry(packetReceivedFromPeer)
attr title "packets received: with retry, vector(packetBytes)"
vector 244 RoutingScenario.node[5].wlan[0].mac.dcf packetReceivedFromPeerUnicast:vector(packetBytes) ETV
attr interpolationmode none
attr source ieee80211Unicast(packetReceivedFromPeer)
attr title "packets received: unicast, vector(packetBytes)"
vector 245 RoutingScenario.node[5].udp packetReceived:vector(packetBytes) ETV
attr interpolationmode none
attr source packetReceived
attr title "packets received, vector(packetBytes)"
vector 246 RoutingScenario.node[5].udp passedUpPk:vector(count) ETV
attr interpolationmode none
attr source packetSentToUpper
attr title "packets passed up, vector(count)"
vector 247 RoutingScenario.node[5].wlan[0].mac.dcf packetReceivedFromPeerWithRetry:vector(packetBytes) ETV
attr interpolationmode none
attr source ieee80211Retry(packetReceivedFromPeer)
attr title "packets received: with retry, vector(packetBytes)"
vector 248 RoutingScenario.node[5].wlan[0].mac.dcf.recipientMacDataService packetDropDuplicateDetected:vector(packetBytes) ETV
attr interpolationmode none
attr source packetDropReasonIsDuplicateDetected(packetDropped)
attr title "packet drops: duplicate detected, vector(packetBytes)"
vector 249 RoutingScenario.node[5].wlan[0].mac packetDropDuplicateDetected:vector(packetBytes) ETV
attr interpolationmode none
attr source packetDropReasonIsDuplicateDetected(packetDropped)
attr title "packet drops: duplicate detected, vector(packetBytes)"
vector 250 RoutingScenario.node[0].wlan[0].mac.dcf.recipientMacDataService packetDropDuplicateDetected:vector(packetBytes) ETV
attr interpolationmode none
attr source packetDropReasonIsDuplicateDetected(packetDropped)
attr title "packet drops: duplicate detected, vector(packetBytes)"
vector 251 RoutingScenario.node[0].wlan[0].mac packetDropDuplicateDetected:vector(packetBytes) ETV
attr interpolationmode none
attr source packetDropReasonIsDuplicateDetected(packetDropped)
attr title "packet drops: duplicate detected, vector(packetBytes)"
vector 252 RoutingScenario.node[2].wlan[0].mac.dcf packetSentToPeerWithRetry:vector(packetBytes) ETV
attr interpolationmode none
attr source ieee80211Retry(packetSentToPeer)
attr title "packets sent: with retry, vector(packetBytes)"
vector 253 RoutingScenario.node[2].wlan[0].mac.dcf packetDropRetryLimitReached:vector(packetBytes) ETV
attr interpolationmode none
attr source packetDropReasonIsRetryLimitReached(packetDropped)
attr title "packet drops: retry limit reached, vector(packetBytes)"
vector 254 RoutingScenario.node[2].wlan[0].mac packetDropRetryLimitReached:vector(packetBytes) ETV
attr interpolationmode none
attr source packetDropReasonIsRetryLimitReached(packetDropped)
attr title "packet drops: retry limit reached, vector(packetBytes)"
vector 255 RoutingScenario.node[6].wlan[0].radio radioMode:vector ETV
attr interpolationmode sample-hold
attr source radioModeChanged
attr title "Radio mode, vector"
vector 256 RoutingScenario.node[6].wlan[0].radio radioChannel:vector ETV
attr interpolationmode sample-hold
attr source radioChannelChanged
attr title "Radio channel, vector"
vector 257 RoutingScenario.node[6].wlan[0].radio receptionState:vector ETV
attr interpolationmode sample-hold
attr source receptionStateChanged
attr title "Radio reception state, vector"
vector 258 RoutingScenario.node[6].wlan[0].mac.dcf.recoveryProcedure contentionWindowChanged:vector ETV
attr interpolationmode sample-hold
attr title "contention window, vector"
vector 259 RoutingScenario.node[6].app[0] packetSent:vector(packetBytes) ETV
attr interpolationmode none
attr source packetSent
attr title "packets sent, vector(packetBytes)"
vector 260 RoutingScenario.node[6].udp packetSent:vector(packetBytes) ETV
attr interpolationmode none
attr source packetSent
attr title "packets sent, vector(packetBytes)"
vector 261 RoutingScenario.node[6].wlan[0].mac packetReceivedFromUpper:vector(packetBytes) ETV
attr interpolationmode none
attr title "packets received from upper layer, vector(packetBytes)"
vector 262 RoutingScenario.node[6].wlan[0].mac.dcf.channelAccess.pendingQueue packetPushed:vector(packetBytes) ETV
attr interpolationmode none
attr title "packet pushed, vector(packetBytes)"
vector 263 RoutingScenario.node[6].wlan[0].mac.dcf.channelAccess.pendingQueue queueLength:vector ETV
attr interpolationmode sample-hold
attr source "count(packetPushed) - count(packetPopped) - count(packetRemoved) - count(packetDropped)"
attr title "queue length, vector"
vector 264 RoutingScenario.node[6].wlan[0].mac.dcf.channelAccess.contention backoffPeriodGenerated:vector ETV
attr interpolationmode none
attr title "backoff periods, vector"
vector 265 RoutingScenario.node[6].wlan[0].mac.dcf.channelAccess.contention backoffActive:vector ETV
attr interpolationmode sample-hold
attr source count(backoffStarted)-count(backoffStopped)
attr title "backoff active, vector"
vector 266 RoutingScenario.node[6].wlan[0].mac.dcf.channelAccess.pendingQueue packetPopped:vector(packetBytes) ETV
attr interpolationmode none
attr title "packet popped, vector(packetBytes)"
vector 267 RoutingScenario.node[6].wlan[0].mac.dcf.channelAccess.pendingQueue queueingTime:vector ETV
attr interpolationmode none
attr source queueingTime(packetPopped)
attr title "queueing times, vector"
attr unit s
vector 268 RoutingScenario.node[6].wlan[0].mac.dcf.channelAccess.inProgressFrames queueLength:vector ETV
attr interpolationmode sample-hold
attr source "count(packetEnqueued) - count(packetDequeued)"
attr title "queue length, vector"
vector 269 RoutingScenario.node[6].wlan[0].mac.dcf datarateSelected:vector ETV
attr interpolationmode none
attr title "datarates selected, vector"
vector 270 RoutingScenario.node[6].wlan[0].mac packetSentToLower:vector(packetBytes) ETV
attr interpolationmode none
attr title "packets sent to lower layer, vector(packetBytes)"
vector 271 RoutingScenario.node[6].wlan[0].mac.dcf frameSequenceActive:vector ETV
attr interpolationmode sample-hold
attr source count(frameSequenceStarted)-count(frameSequenceFinished)
attr title "frame sequence active, vector"
vector 272 RoutingScenario.node[6].wlan[0].radio transmissionState:vector ETV
attr interpolationmode sample-hold
attr source transmissionStateChanged
attr title "Radio transmission state, vector"
vector 273 RoutingScenario.node[6].wlan[0].mac.dcf packetSentToPeer:vector(packetBytes) ETV
attr interpolationmode none
attr title "packets sent, vector(packetBytes)"
vector 274 RoutingScenario.node[6].wlan[0].mac.dcf packetSentToPeerMulticast:vector(packetBytes) ETV
attr interpolationmode none
attr source ieee80211Multicast(packetSentToPeer)
attr title "packets sent: multicast, vector(packetBytes)"
vector 275 RoutingScenario.node[6].wlan[0].mac.dcf packetSentToPeerBroadcast:vector(packetBytes) ETV
attr interpolationmode none
attr source ieee80211Broadcast(packetSentToPeer)
attr title "packets sent: broadcast , vector(packetBytes)"
vector 276 RoutingScenario.node[6].wlan[0].mac.dcf packetSentToPeerWithoutRetry:vector(packetBytes) ETV
attr interpolationmode none
attr source ieee80211NotRetry(packetSentToPeer)
attr title "packets sent: without retry, vector(packetBytes)"
vector 277 RoutingScenario.node[6].wlan[0].mac.dcf.channelAccess.inProgressFrames queueingTime:vector ETV
attr interpolationmode none
attr source queueingTime(packetDequeued)
attr title "queueing times, vector"
vector 278 RoutingScenario.node[7].wlan[0].radio radioMode:vector ETV
attr interpolationmode sample-hold
attr source radioModeChanged
attr title "Radio mode, vector"
vector 279 RoutingScenario.node[7].wlan[0].radio radioChannel:vector ETV
attr interpolationmode sample-hold
attr source radioChannelChanged
attr title "Radio channel, vector"
vector 280 RoutingScenario.node[7].wlan[0].radio receptionState:vector ETV
attr interpolationmode sample-hold
attr source receptionStateChanged
attr title "Radio reception state, vector"
vector 281 RoutingScenario.node[7].wlan[0].mac.dcf.recoveryProcedure contentionWindowChanged:vector ETV
attr interpolationmode sample-hold
attr title "contention window, vector"
vector 282 RoutingScenario.node[7].app[0] packetSent:vector(packetBytes) ETV
attr interpolationmode none
attr source packetSent
attr title "packets sent, vector(packetBytes)"
vector 283 RoutingScenario.node[7].udp packetSent:vector(packetBytes) ETV
attr interpolationmode none
attr source packetSent
attr title "packets sent, vector(packetBytes)"
vector 284 RoutingScenario.node[7].wlan[0].mac packetReceivedFromLower:vector(packetBytes) ETV
attr interpolationmode none
attr title "packets received from lower layer, vector(packetBytes)"
vector 285 RoutingScenario.node[7].wlan[0].mac.dcf packetDrop:vector(packetBytes) ETV
attr interpolationmode none
attr source packetDropped
attr title "packet drops, vector(packetBytes)"
vector 286 RoutingScenario.node[7].wlan[0].mac.dcf packetDropNotAddressedToUs:vector(packetBytes) ETV
attr interpolationmode none
attr source packetDropReasonIsNotAddressedToUs(packetDropped)
attr title "packet drops: not addressed to us, vector(packetBytes)"
vector 287 RoutingScenario.node[7].wlan[0].mac packetDrop:vector(packetBytes) ETV
attr interpolationmode none
attr source packetDropped
attr title "packet drops, vector(packetBytes)"
vector 288 RoutingScenario.node[7].wlan[0].mac packetDropNotAddressedToUs:vector(packetBytes) ETV
attr interpolationmode none
attr source packetDropReasonIsNotAddressedToUs(packetDropped)
attr title "packet drops: not addressed to us, vector(packetBytes)"
vector 289 RoutingScenario.node[7].wlan[0].mac packetReceivedFromUpper:vector(packetBytes) ETV
attr interpolationmode none
attr title "packets received from upper layer, vector(packetBytes)"
vector 290 RoutingScenario.node[7].wlan[0].mac.dcf.channelAccess.pendingQueue packetPushed:vector(packetBytes) ETV
attr interpolationmode none
attr title "packet pushed, vector(packetBytes)"
vector 291 RoutingScenario.node[7].wlan[0].mac.dcf.channelAccess.pendingQueue queueLength:vector ETV
attr interpolationmode sample-hold
attr source "count(packetPushed) - count(packetPopped) - count(packetRemoved) - count(packetDropped)"
attr title "queue length, vector"
vector 292 RoutingScenario.node[7].wlan[0].mac.dcf.channelAccess.contention backoffPeriodGenerated:vector ETV
attr interpolationmode none
attr title "backoff periods, vector"
vector 293 RoutingScenario.node[7].wlan[0].mac.dcf.channelAccess.contention backoffActive:vector ETV
attr interpolationmode sample-hold
attr source count(backoffStarted)-count(backoffStopped)
attr title "backoff active, vector"
vector 294 RoutingScenario.node[7].wlan[0].mac.dcf.channelAccess.pendingQueue packetPopped:vector(packetBytes) ETV
attr interpolationmode none
attr title "packet popped, vector(packetBytes)"
vector 295 RoutingScenario.node[7].wlan[0].mac.dcf.channelAccess.pendingQueue queueingTime:vector ETV
attr interpolationmode none
attr source queueingTime(packetPopped)
attr title "queueing times, vector"
attr unit s
vector 296 RoutingScenario.node[7].wlan[0].mac.dcf.channelAccess.inProgressFrames queueLength:vector ETV
attr interpolationmode sample-hold
attr source "count(packetEnqueued) - count(packetDequeued)"
attr title "queue length, vector"
vector 297 RoutingScenario.node[7].wlan[0].mac.dcf datarateSelected:vector ETV
attr interpolationmode none
attr title "datarates selected, vector"
vector 298 RoutingScenario.node[7].wlan[0].mac packetSentToLower:vector(packetBytes) ETV
attr interpolationmode none
attr title "packets sent to lower layer, vector(packetBytes)"
vector 299 RoutingScenario.node[7].wlan[0].mac.dcf frameSequenceActive:vector ETV
attr interpolationmode sample-hold
attr source count(frameSequenceStarted)-count(frameSequenceFinished)
attr title "frame sequence active, vector"
vector 300 RoutingScenario.node[7].wlan[0].radio transmissionState:vector ETV
attr interpolationmode sample-hold
attr source transmissionStateChanged
attr title "Radio transmission state, vector"
vector 301 RoutingScenario.node[7].wlan[0].mac.dcf packetSentToPeer:vector(packetBytes) ETV
attr interpolationmode none
attr title "packets sent, vector(packetBytes)"
vector 302 RoutingScenario.node[7].wlan[0].mac.dcf packetSentToPeerMulticast:vector(packetBytes) ETV
attr interpolationmode none
attr source ieee80211Multicast(packetSentToPeer)
attr title "packets sent: multicast, vector(packetBytes)"
vector 303 RoutingScenario.node[7].wlan[0].mac.dcf packetSentToPeerBroadcast:vector(packetBytes) ETV
attr interpolationmode none
attr source ieee80211Broadcast(packetSentToPeer)
attr title "packets sent: broadcast , vector(packetBytes)"
vector 304 RoutingScenario.node[7].wlan[0].mac.dcf packetSentToPeerWithoutRetry:vector(packetBytes) ETV
attr interpolationmode none
attr source ieee80211NotRetry(packetSentToPeer)
attr title "packets sent: without retry, vector(packetBytes)"
vector 305 RoutingScenario.node[7].wlan[0].mac.dcf.channelAccess.inProgressFrames queueingTime:vector ETV
attr interpolationmode none
attr source queueingTime(packetDequeued)
attr title "queueing times, vector"
vector 306 RoutingScenario.node[7].wlan[0].mac.rx nav:vector ETV
attr interpolationmode linear
attr source navChanged
attr title "network allocation vector, vector"
vector 307 RoutingScenario.node[8].wlan[0].radio radioMode:vector ETV
attr interpolationmode sample-hold
attr source radioModeChanged
attr title "Radio mode, vector"
vector 308 RoutingScenario.node[8].wlan[0].radio radioChannel:vector ETV
attr interpolationmode sample-hold
attr source radioChannelChanged
attr title "Radio channel, vector"
vector 309 RoutingScenario.node[8].wlan[0].radio receptionState:vector ETV
attr interpolationmode sample-hold
attr source receptionStateChanged
attr title "Radio reception state, vector"
vector 310 RoutingScenario.node[8].wlan[0].mac.dcf.recoveryProcedure contentionWindowChanged:vector ETV
attr interpolationmode sample-hold
attr title "contention window, vector"
vector 311 RoutingScenario.node[8].app[0] packetSent:vector(packetBytes) ETV
attr interpolationmode none
attr source packetSent
attr title "packets sent, vector(packetBytes)"
vector 312 RoutingScenario.node[8].udp packetSent:vector(packetBytes) ETV
attr interpolationmode none
attr source packetSent
attr title "packets sent, vector(packetBytes)"
vector 313 RoutingScenario.node[8].wlan[0].mac packetReceivedFromUpper:vector(packetBytes) ETV
attr interpolationmode none
attr title "packets received from upper layer, vector(packetBytes)"
vector 314 RoutingScenario.node[8].wlan[0].mac.dcf.channelAccess.pendingQueue packetPushed:vector(packetBytes) ETV
attr interpolationmode none
attr title "packet pushed, vector(packetBytes)"
vector 315 RoutingScenario.node[8].wlan[0].mac.dcf.channelAccess.pendingQueue queueLength:vector ETV
attr interpolationmode sample-hold
attr source "count(packetPushed) - count(packetPopped) - count(packetRemoved) - count(packetDropped)"
attr title "queue length, vector"
vector 316 RoutingScenario.node[8].wlan[0].mac.dcf.channelAccess.contention backoffPeriodGenerated:vector ETV
attr interpolationmode none
attr title "backoff periods, vector"
vector 317 RoutingScenario.node[8].wlan[0].mac.dcf.channelAccess.contention backoffActive:vector ETV
attr interpolationmode sample-hold
attr source count(backoffStarted)-count(backoffStopped)
attr title "backoff active, vector"
vector 318 RoutingScenario.node[8].wlan[0].mac.dcf.channelAccess.pendingQueue packetPopped:vector(packetBytes) ETV
attr interpolationmode none
attr title "packet popped, vector(packetBytes)"
vector 319 RoutingScenario.node[8].wlan[0].mac.dcf.channelAccess.pendingQueue queueingTime:vector ETV
attr interpolationmode none
attr source queueingTime(packetPopped)
attr title "queueing times, vector"
attr unit s
vector 320 RoutingScenario.node[8].wlan[0].mac.dcf.channelAccess.inProgressFrames queueLength:vector ETV
attr interpolationmode sample-hold
attr source "count(packetEnqueued) - count(packetDequeued)"
attr title "queue length, vector"
vector 321 RoutingScenario.node[8].wlan[0].mac.dcf datarateSelected:vector ETV
attr interpolationmode none
attr title "datarates selected, vector"
vector 322 RoutingScenario.node[8].wlan[0].mac packetSentToLower:vector(packetBytes) ETV
attr interpolationmode none
attr title "packets sent to lower layer, vector(packetBytes)"
vector 323 RoutingScenario.node[8].wlan[0].mac.dcf frameSequenceActive:vector ETV
attr interpolationmode sample-hold
attr source count(frameSequenceStarted)-count(frameSequenceFinished)
attr title "frame sequence active, vector"
vector 324 RoutingScenario.node[8].wlan[0].radio transmissionState:vector ETV
attr interpolationmode sample-hold
attr source transmissionStateChanged
attr title "Radio transmission state, vector"
vector 325 RoutingScenario.node[8].wlan[0].mac.dcf packetSentToPeer:vector(packetBytes) ETV
attr interpolationmode none
attr title "packets sent, vector(packetBytes)"
vector 326 RoutingScenario.node[8].wlan[0].mac.dcf packetSentToPeerMulticast:vector(packetBytes) ETV
attr interpolationmode none
attr source ieee80211Multicast(packetSentToPeer)
attr title "packets sent: multicast, vector(packetBytes)"
vector 327 RoutingScenario.node[8].wlan[0].mac.dcf packetSentToPeerBroadcast:vector(packetBytes) ETV
attr interpolationmode none
attr source ieee80211Broadcast(packetSentToPeer)
attr title "packets sent: broadcast , vector(packetBytes)"
vector 328 RoutingScenario.node[8].wlan[0].mac.dcf packetSentToPeerWithoutRetry:vector(packetBytes) ETV
attr interpolationmode none
attr source ieee80211NotRetry(packetSentToPeer)
attr title "packets sent: without retry, vector(packetBytes)"
vector 329 RoutingScenario.node[8].wlan[0].mac.dcf.channelAccess.inProgressFrames queueingTime:vector ETV
attr interpolationmode none
attr source queueingTime(packetDequeued)
attr title "queueing times, vector"
vector 330 RoutingScenario.node[8].wlan[0].mac packetReceivedFromLower:vector(packetBytes) ETV
attr interpolationmode none
attr title "packets received from lower layer, vector(packetBytes)"
vector 331 RoutingScenario.node[8].wlan[0].mac.dcf packetReceivedFromPeer:vector(packetBytes) ETV
attr interpolationmode none
attr title "packets received, vector(packetBytes)"
vector 332 RoutingScenario.node[8].wlan[0].mac.dcf packetReceivedFromPeerMulticast:vector(packetBytes) ETV
attr interpolationmode none
attr source ieee80211Multicast(packetReceivedFromPeer)
attr title "packets received: multicast, vector(packetBytes)"
vector 333 RoutingScenario.node[8].wlan[0].mac.dcf packetReceivedFromPeerBroadcast:vector(packetBytes) ETV
attr interpolationmode none
attr source ieee80211Broadcast(packetReceivedFromPeer)
attr title "packets received: broadcast, vector(packetBytes)"
vector 334 RoutingScenario.node[8].wlan[0].mac.dcf packetReceivedFromPeerWithoutRetry:vector(packetBytes) ETV
attr interpolationmode none
attr source ieee80211NotRetry(packetReceivedFromPeer)
attr title "packets received: without retry, vector(packetBytes)"
vector 335 RoutingScenario.node[8].wlan[0].mac packetSentToUpper:vector(packetBytes) ETV
attr interpolationmode none
attr title "packets sent to upper layer, vector(packetBytes)"
vector 336 RoutingScenario.node[8].ipv4.arp arpReplySent:vector(packetBytes) ETV
attr source arpReplySent
attr title "ARP replies sent, vector(packetBytes)"
vector 337 RoutingScenario.node[8].wlan[0].mac.dcf packetSentToPeerUnicast:vector(packetBytes) ETV
attr interpolationmode none
attr source ieee80211Unicast(packetSentToPeer)
attr title "packets sent: unicast, vector(packetBytes)"
vector 338 RoutingScenario.node[8].wlan[0].mac.rx nav:vector ETV
attr interpolationmode linear
attr source navChanged
attr title "network allocation vector, vector"
vector 339 RoutingScenario.node[8].wlan[0].mac.dcf packetReceivedFromPeerUnicast:vector(packetBytes) ETV
attr interpolationmode none
attr source ieee80211Unicast(packetReceivedFromPeer)
attr title "packets received: unicast, vector(packetBytes)"
vector 340 RoutingScenario.node[8].udp packetReceived:vector(packetBytes) ETV
attr interpolationmode none
attr source packetReceived
attr title "packets received, vector(packetBytes)"
vector 341 RoutingScenario.node[8].udp passedUpPk:vector(count) ETV
attr interpolationmode none
attr source packetSentToUpper
attr title "packets passed up, vector(count)"
vector 342 RoutingScenario.node[8].wlan[0].mac.dcf packetDrop:vector(packetBytes) ETV
attr interpolationmode none
attr source packetDropped
attr title "packet drops, vector(packetBytes)"
vector 343 RoutingScenario.node[8].wlan[0].mac.dcf packetDropNotAddressedToUs:vector(packetBytes) ETV
attr interpolationmode none
attr source packetDropReasonIsNotAddressedToUs(packetDropped)
attr title "packet drops: not addressed to us, vector(packetBytes)"
vector 344 RoutingScenario.node[8].wlan[0].mac packetDrop:vector(packetBytes) ETV
attr interpolationmode none
attr source packetDropped
attr title "packet drops, vector(packetBytes)"
vector 345 RoutingScenario.node[8].wlan[0].mac packetDropNotAddressedToUs:vector(packetBytes) ETV
attr interpolationmode none
attr source packetDropReasonIsNotAddressedToUs(packetDropped)
attr title "packet drops: not addressed to us, vector(packetBytes)"
0	2	0.1	0
0	2	0.1	0
0	2	0.1	2
0	1365	2.101188168813	3
0	1370	2.101276168813	2
0	1394	2.101560194383	3
0	1400	2.101616194383	2
0	1406	2.101713194383	3
0	1411	2.101809194383	2
0	1450	2.102819219953	3
0	1456	2.102875219953	2
0	1462	2.102946219953	3
0	1467	2.103050219953	2
0	1512	2.111379579324	3
0	1518	2.111435579324	2
0	1524	2.111519579324	3
0	1531	2.111623579324	2
0	1596	2.122570921587	3
0	1602	2.122626921587	2
0	1608	2.122736921587	3
0	1613	2.122840921587	2
0	1656	2.130704545612	3
0	1662	2.130760545612	2
0	1668	2.130909545612	3
0	1673	2.131013545612	2
0	1720	2.138694655452	3
0	1726	2.138750655452	2
0	1732	2.138860655452	3
0	1737	2.138964655452	2
0	1796	2.146967869906	3
0	1802	2.147023869906	2
0	1808	2.147172869906	3
0	1813	2.147276869906	2
0	1868	2.170760856761	3
0	1874	2.170816856761	2
0	1880	2.170887856761	3
0	1885	2.170991856761	2
0	1932	2.187568965125	3
0	1938	2.187624965125	2
0	1944	2.187721965125	3
0	1949	2.187825965125	2
0	1998	2.191336939902	3
0	2004	2.191392939902	2
0	2010	2.191450939902	3
0	2015	2.191554939902	2
0	2058	2.195580098805	3
0	2070	2.195636098805	2
0	2076	2.195707098805	3
0	2081	2.195811098805	2
0	2124	2.197123061652	3
0	2130	2.197179061652	2
0	2136	2.197432061652	3
0	2141	2.197536061652	2
0	2205	2.207228696545	3
0	2211	2.207284696545	2
0	2217	2.207485696545	3
0	2223	2.207589696545	2
0	2270	2.213588235496	3
0	2276	2.213644235496	2
0	2282	2.213858235496	3
0	2287	2.213962235496	2
0	2334	2.217899762358	3
0	2340	2.217955762358	2
0	2346	2.218052762358	3
0	2351	2.218156762358	2
0	2429	2.249178623986	3
0	2435	2.249234623986	2
0	2441	2.249292623986	3
0	2446	2.249396623986	2
0	2489	2.25264077651	3
0	2495	2.25269677651	2
0	2501	2.25280677651	3
0	2506	2.25291077651	2
0	2569	2.272596365878	3
0	2575	2.272652365878	2
0	2581	2.272866365878	3
0	2586	2.272970365878	2
0	2629	2.273902389966	3
0	2635	2.273958389966	2
0	2641	2.274120389966	3
0	2646	2.274224389966	2
0	2706	2.284570725345	3
0	2712	2.284626725345	2
0	2718	2.284853725345	3
0	2723	2.284957725345	2
0	2775	2.293493723646	3
0	2781	2.293549723646	2
0	2787	2.293750723646	3
0	2792	2.293854723646	2
0	2868	2.31453830059	3
0	2874	2.31459430059	2
0	2880	2.31469130059	3
0	2885	2.31479530059	2
0	2933	2.316895843221	3
0	2939	2.316951843221	2
0	2945	2.317152843221	3
0	2950	2.317256843221	2
0	2988	2.318227869717	3
0	2994	2.318283869717	2
0	3000	2.318341869717	3
0	3005	2.318445869717	2
0	3048	2.322573348463	3
0	3054	2.322629348463	2
0	3060	2.322804348463	3
0	3065	2.322908348463	2
0	3148	2.353682731768	3
0	3154	2.353738731768	2
0	3160	2.353952731768	3
0	3171	2.354056731768	2
0	3214	2.355978284319	3
0	3220	2.356034284319	2
0	3226	2.356144284319	3
0	3231	2.356248284319	2
0	3284	2.365733064653	3
0	3290	2.365789064653	2
0	3297	2.366016064653	3
0	3303	2.366120064653	2
0	3363	2.375031173207	3
0	3369	2.375087173207	2
0	3378	2.375314173207	3
0	3383	2.375418173207	2
0	3430	2.376694215064	3
0	3436	2.376750215064	2
0	3442	2.376925215064	3
0	3452	2.377029215064	2
0	3490	2.37809124156	3
0	3496	2.37814724156	2
0	3502	2.37828324156	3
0	3507	2.37838724156	2
0	3581	2.402893255494	3
0	3587	2.402949255494	2
0	3593	2.403176255494	3
0	3598	2.403280255494	2
0	3659	2.418008949541	3
0	3665	2.418064949541	2
0	3687	2.418986978467	3
0	3693	2.419042978467	2
0	3699	2.419204978467	3
0	3704	2.419308978467	2
0	3726	2.419626007393	3
0	3731	2.419730007393	2
0	3809	2.456505782499	3
0	3815	2.456561782499	2
0	3821	2.456645782499	3
0	3826	2.456749782499	2
0	3875	2.458564246027	3
0	3881	2.458620246027	2
0	3887	2.458847246027	3
0	3892	2.458951246027	2
0	3935	2.460065274953	3
0	3941	2.460121274953	2
0	3947	2.460348274953	3
0	3952	2.460452274953	2
0	4034	2.492882157813	3
0	4040	2.492938157813	2
0	4046	2.492996157813	3
0	4051	2.493100157813	2
0	4104	2.501989736323	3
0	4110	2.502045736323	2
0	4116	2.502168736323	3
0	4121	2.502272736323	2
0	4173	2.503308767687	3
0	4179	2.503364767687	2
0	4185	2.503500767687	3
0	4190	2.503604767687	2
0	4228	2.504614799051	3
0	4234	2.504670799051	2
0	4240	2.504767799051	3
0	4245	2.504871799051	2
0	4288	2.507104120617	3
0	4294	2.507160120617	2
0	4300	2.507374120617	3
0	4305	2.507478120617	2
0	4374	2.515971160856	3
0	4380	2.516027160856	2
0	4386	2.516150160856	3
0	4391	2.516254160856	2
0	4431	2.51726419222	3
0	4437	2.51732019222	2
0	4445	2.51757319222	3
0	4450	2.51767719222	2
0	4496	2.519870561538	3
0	4502	2.519926561538	2
0	4508	2.520088561538	3
0	4513	2.520192561538	2
0	4582	2.52797483198	3
0	4588	2.52803083198	2
0	4594	2.52817983198	3
0	4599	2.52828383198	2
0	4649	2.53242877263	3
0	4655	2.53248477263	2
0	4661	2.53269877263	3
0	4666	2.53280277263	2
0	4709	2.53793710776	3
0	4716	2.53799310776	2
0	4723	2.53812910776	3
0	4728	2.53823310776	2
0	4816	2.557361040557	3
0	4822	2.557417040557	2
0	4828	2.557618040557	3
0	4833	2.557722040557	2
0	4876	2.565623207214	3
0	4882	2.565679207214	2
0	4888	2.565919207214	3
0	4893	2.566023207214	2
0	4959	2.586372642866	3
0	4965	2.586428642866	2
0	4971	2.586525642866	3
0	4976	2.586629642866	2
0	5025	2.592453321433	3
0	5031	2.592509321433	2
0	5037	2.592658321433	3
0	5042	2.592762321433	2
0	5121	2.625683056456	3
0	5127	2.625739056456	2
0	5133	2.625966056456	3
0	5138	2.626070056456	2
0	5187	2.63375165128	3
0	5193	2.63380765128	2
0	5199	2.63395665128	3
0	5204	2.63406065128	2
0	5282	2.663579224292	3
0	5288	2.663635224292	2
0	5294	2.663732224292	3
0	5299	2.663836224292	2
0	5348	2.671991770404	3
0	5354	2.672047770404	2
0	5360	2.672105770404	3
0	5365	2.672209770404	2
0	5415	2.677195748668	3
0	5421	2.677251748668	2
0	5427	2.677439748668	3
0	5432	2.677543748668	2
0	5475	2.679896258594	3
0	5481	2.679952258594	2
0	5487	2.680049258594	3
0	5492	2.680153258594	2
0	5555	2.688694962658	3
0	5561	2.688750962658	2
0	5567	2.688899962658	3
0	5572	2.689003962658	2
0	5642	2.703463590122	3
0	5648	2.703519590122	2
0	5654	2.703642590122	3
0	5659	2.703746590122	2
0	5702	2.704730626448	3
0	5708	2.704786626448	2
[...]
342	86450	8.123915944008	14
342	86515	8.147812485051	1058
342	86552	8.147901588518	14
342	86576	8.148232588518	86
342	86608	8.148321595457	14
342	86727	8.155024303423	1058
342	86764	8.15511340689	14
342	86844	8.155643539234	86
342	86876	8.155732546173	14
342	87083	8.166725038393	1058
342	87120	8.16681414186	14
342	87146	8.16702814186	86
342	87178	8.167117148799	14
342	87344	8.174293317416	1058
342	87381	8.174382420883	14
342	87410	8.175193427822	1058
342	87447	8.175282531289	14
342	87471	8.175613531289	86
342	87503	8.175702538228	14
342	87529	8.175930641695	86
342	87561	8.176019648634	14
342	87792	8.206962189364	1058
342	87829	8.207051290065	14
342	87853	8.207304290065	86
342	87885	8.207393305442	14
342	87961	8.217441302356	1058
342	87998	8.217530403057	14
342	88022	8.217744403057	86
342	88054	8.217833418434	14
342	88093	8.220547267685	1058
342	88130	8.220636368386	14
342	88154	8.220928368386	86
342	88186	8.221017383763	14
342	88245	8.227314497116	1058
342	88282	8.227403597817	14
342	88308	8.227604597817	86
342	88340	8.227693613194	14
342	88522	8.238432087859	1058
342	88559	8.23852118856	14
342	88586	8.23887818856	86
342	88619	8.238967203937	14
342	88793	8.247735462933	1058
342	88830	8.247824563634	14
342	88854	8.247986563634	86
342	88886	8.248075579011	14
342	89229	8.282256254736	1058
342	89266	8.282345355437	14
342	89290	8.282598355437	86
342	89322	8.282687370814	14
342	89620	8.290281276816	1058
342	89657	8.290370377517	14
343	86070	8.110850529116	1058
343	86107	8.110939632583	14
343	86135	8.111270632583	86
343	86168	8.111359639522	14
343	86227	8.120751840996	1058
343	86264	8.120840944463	14
343	86290	8.121119944463	86
343	86322	8.121208951402	14
343	86357	8.123575833602	1058
343	86394	8.123664937069	14
343	86418	8.123826937069	86
343	86450	8.123915944008	14
343	86515	8.147812485051	1058
343	86552	8.147901588518	14
343	86576	8.148232588518	86
343	86608	8.148321595457	14
343	86727	8.155024303423	1058
343	86764	8.15511340689	14
343	86844	8.155643539234	86
343	86876	8.155732546173	14
343	87083	8.166725038393	1058
343	87120	8.16681414186	14
343	87146	8.16702814186	86
343	87178	8.167117148799	14
343	87344	8.174293317416	1058
343	87381	8.174382420883	14
343	87410	8.175193427822	1058
343	87447	8.175282531289	14
343	87471	8.175613531289	86
343	87503	8.175702538228	14
343	87529	8.175930641695	86
343	87561	8.176019648634	14
343	87792	8.206962189364	1058
343	87829	8.207051290065	14
343	87853	8.207304290065	86
343	87885	8.207393305442	14
343	87961	8.217441302356	1058
343	87998	8.217530403057	14
343	88022	8.217744403057	86
343	88054	8.217833418434	14
343	88093	8.220547267685	1058
343	88130	8.220636368386	14
343	88154	8.220928368386	86
343	88186	8.221017383763	14
343	88245	8.227314497116	1058
343	88282	8.227403597817	14
343	88308	8.227604597817	86
343	88340	8.227693613194	14
343	88522	8.238432087859	1058
343	88559	8.23852118856	14
343	88586	8.23887818856	86
343	88619	8.238967203937	14
343	88793	8.247735462933	1058
343	88830	8.247824563634	14
343	88854	8.247986563634	86
343	88886	8.248075579011	14
343	89229	8.282256254736	1058
343	89266	8.282345355437	14
343	89290	8.282598355437	86
343	89322	8.282687370814	14
343	89620	8.290281276816	1058
343	89657	8.290370377517	14
344	86070	8.110850529116	1058
344	86107	8.110939632583	14
344	86135	8.111270632583	86
344	86168	8.111359639522	14
344	86227	8.120751840996	1058
344	86264	8.120840944463	14
344	86290	8.121119944463	86
344	86322	8.121208951402	14
344	86357	8.123575833602	1058
344	86394	8.123664937069	14
344	86418	8.123826937069	86
344	86450	8.123915944008	14
344	86515	8.147812485051	1058
344	86552	8.147901588518	14
344	86576	8.148232588518	86
344	86608	8.148321595457	14
344	86727	8.155024303423	1058
344	86764	8.15511340689	14
344	86844	8.155643539234	86
344	86876	8.155732546173	14
344	87083	8.166725038393	1058
344	87120	8.16681414186	14
344	87146	8.16702814186	86
344	87178	8.167117148799	14
344	87344	8.174293317416	1058
344	87381	8.174382420883	14
344	87410	8.175193427822	1058
344	87447	8.175282531289	14
344	87471	8.175613531289	86
344	87503	8.175702538228	14
344	87529	8.175930641695	86
344	87561	8.176019648634	14
344	87792	8.206962189364	1058
344	87829	8.207051290065	14
344	87853	8.207304290065	86
344	87885	8.207393305442	14
344	87961	8.217441302356	1058
344	87998	8.217530403057	14
344	88022	8.217744403057	86
344	88054	8.217833418434	14
344	88093	8.220547267685	1058
344	88130	8.220636368386	14
344	88154	8.220928368386	86
344	88186	8.221017383763	14
344	88245	8.227314497116	1058
344	88282	8.227403597817	14
344	88308	8.227604597817	86
344	88340	8.227693613194	14
344	88522	8.238432087859	1058
344	88559	8.23852118856	14
344	88586	8.23887818856	86
344	88619	8.238967203937	14
344	88793	8.247735462933	1058
344	88830	8.247824563634	14
344	88854	8.247986563634	86
344	88886	8.248075579011	14
344	89229	8.282256254736	1058
344	89266	8.282345355437	14
344	89290	8.282598355437	86
344	89322	8.282687370814	14
344	89620	8.290281276816	1058
344	89657	8.290370377517	14
345	86070	8.110850529116	1058
345	86107	8.110939632583	14
345	86135	8.111270632583	86
345	86168	8.111359639522	14
345	86227	8.120751840996	1058
345	86264	8.120840944463	14
345	86290	8.121119944463	86
345	86322	8.121208951402	14
345	86357	8.123575833602	1058
345	86394	8.123664937069	14
345	86418	8.123826937069	86
345	86450	8.123915944008	14
345	86515	8.147812485051	1058
345	86552	8.147901588518	14
345	86576	8.148232588518	86
345	86608	8.148321595457	14
345	86727	8.155024303423	1058
345	86764	8.15511340689	14
345	86844	8.155643539234	86
345	86876	8.155732546173	14
345	87083	8.166725038393	1058
345	87120	8.16681414186	14
345	87146	8.16702814186	86
345	87178	8.167117148799	14
345	87344	8.174293317416	1058
345	87381	8.174382420883	14
345	87410	8.175193427822	1058
345	87447	8.175282531289	14
345	87471	8.175613531289	86
345	87503	8.175702538228	14
345	87529	8.175930641695	86
345	87561	8.176019648634	14
345	87792	8.206962189364	1058
345	87829	8.207051290065	14
345	87853	8.207304290065	86
345	87885	8.207393305442	14
345	87961	8.217441302356	1058
345	87998	8.217530403057	14
345	88022	8.217744403057	86
345	88054	8.217833418434	14
345	88093	8.220547267685	1058
345	88130	8.220636368386	14
345	88154	8.220928368386	86
345	88186	8.221017383763	14
345	88245	8.227314497116	1058
345	88282	8.227403597817	14
345	88308	8.227604597817	86
345	88340	8.227693613194	14
345	88522	8.238432087859	1058
345	88559	8.23852118856	14
345	88586	8.23887818856	86
345	88619	8.238967203937	14
345	88793	8.247735462933	1058
345	88830	8.247824563634	14
345	88854	8.247986563634	86
345	88886	8.248075579011	14
345	89229	8.282256254736	1058
345	89266	8.282345355437	14
345	89290	8.282598355437	86
345	89322	8.282687370814	14
345	89620	8.290281276816	1058
345	89657	8.290370377517	14
vector 346 RoutingScenario.node[0].app[0] throughput:vector ETV
attr source throughput(packetReceived)
attr title "throughput, vector"
attr unit bps
346	89662	0.1	0
346	89662	0.2	0
346	89662	0.3	0
346	89662	0.4	0
346	89662	0.5	0
346	89662	0.6	0
346	89662	0.7	0
346	89662	0.8	0
346	89662	0.9	0
346	89662	1	0
346	89662	1.1	0
346	89662	1.2	0
346	89662	1.3	0
346	89662	1.4	0
346	89662	1.5	0
346	89662	1.6	0
346	89662	1.7	0
346	89662	1.8	0
346	89662	1.9	0
346	89662	2	0
346	89662	2.1	0
346	89662	2.2	0
346	89662	2.3	0
346	89662	2.4	0
346	89662	2.5	0
346	89662	2.6	0
346	89662	2.7	0
346	89662	2.8	0
346	89662	2.9	0
346	89662	3	0
346	89662	3.1	0
346	89662	3.2	0
346	89662	3.3	0
346	89662	3.4	0
346	89662	3.5	0
346	89662	3.6	0
346	89662	3.7	0
346	89662	3.8	0
346	89662	3.9	0
346	89662	4	0
346	89662	4.1	0
346	89662	4.2	0
346	89662	4.3	0
346	89662	4.4	0
346	89662	4.5	0
346	89662	4.6	0
346	89662	4.7	0
346	89662	4.8	0
346	89662	4.9	0
346	89662	5	0
346	89662	5.1	0
346	89662	5.2	0
346	89662	5.3	0
346	89662	5.4	0
346	89662	5.5	0
346	89662	5.6	0
346	89662	5.7	0
346	89662	5.8	0
346	89662	5.9	0
346	89662	6	0
346	89662	6.1	0
346	89662	6.2	0
346	89662	6.3	0
346	89662	6.4	0
346	89662	6.5	0
346	89662	6.6	0
346	89662	6.7	0
346	89662	6.8	0
346	89662	6.9	0
346	89662	7	0
346	89662	7.1	0
346	89662	7.2	0
346	89662	7.3	0
346	89662	7.4	0
346	89662	7.5	0
346	89662	7.6	0
346	89662	7.7	0
346	89662	7.8	0
346	89662	7.9	0
346	89662	8	0
346	89662	8.1	0
346	89662	8.2	0
346	89662	8.290371546548	0
vector 347 RoutingScenario.node[1].app[0] throughput:vector ETV
attr source throughput(packetReceived)
attr title "throughput, vector"
attr unit bps
347	89662	0.1	0
347	89662	0.2	0
347	89662	0.3	0
347	89662	0.4	0
347	89662	0.5	0
347	89662	0.6	0
347	89662	0.7	0
347	89662	0.8	0
347	89662	0.9	0
347	89662	1	0
347	89662	1.1	0
347	89662	1.2	0
347	89662	1.3	0
347	89662	1.4	0
347	89662	1.5	0
347	89662	1.6	0
347	89662	1.7	0
347	89662	1.8	0
347	89662	1.9	0
347	89662	2	0
347	89662	2.1	0
347	89662	2.2	0
347	89662	2.3	0
347	89662	2.4	0
347	89662	2.5	0
347	89662	2.6	0
347	89662	2.7	0
347	89662	2.8	0
347	89662	2.9	0
347	89662	3	0
347	89662	3.1	0
347	89662	3.2	0
347	89662	3.3	0
347	89662	3.4	0
347	89662	3.5	0
347	89662	3.6	0
347	89662	3.7	0
347	89662	3.8	0
347	89662	3.9	0
347	89662	4	0
347	89662	4.1	0
347	89662	4.2	0
347	89662	4.3	0
347	89662	4.4	0
347	89662	4.5	0
347	89662	4.6	0
347	89662	4.7	0
347	89662	4.8	0
347	89662	4.9	0
347	89662	5	0
347	89662	5.1	0
347	89662	5.2	0
347	89662	5.3	0
347	89662	5.4	0
347	89662	5.5	0
347	89662	5.6	0
347	89662	5.7	0
347	89662	5.8	0
347	89662	5.9	0
347	89662	6	0
347	89662	6.1	0
347	89662	6.2	0
347	89662	6.3	0
347	89662	6.4	0
347	89662	6.5	0
347	89662	6.6	0
347	89662	6.7	0
347	89662	6.8	0
347	89662	6.9	0
347	89662	7	0
347	89662	7.1	0
347	89662	7.2	0
347	89662	7.3	0
347	89662	7.4	0
347	89662	7.5	0
347	89662	7.6	0
347	89662	7.7	0
347	89662	7.8	0
347	89662	7.9	0
347	89662	8	0
347	89662	8.1	0
347	89662	8.2	0
347	89662	8.290371546548	0
vector 348 RoutingScenario.node[2].app[0] throughput:vector ETV
attr source throughput(packetReceived)
attr title "throughput, vector"
attr unit bps
348	89662	0.1	0
348	89662	0.2	0
348	89662	0.3	0
348	89662	0.4	0
348	89662	0.5	0
348	89662	0.6	0
348	89662	0.7	0
348	89662	0.8	0
348	89662	0.9	0
348	89662	1	0
348	89662	1.1	0
348	89662	1.2	0
348	89662	1.3	0
348	89662	1.4	0
348	89662	1.5	0
348	89662	1.6	0
348	89662	1.7	0
348	89662	1.8	0
348	89662	1.9	0
348	89662	2	0
348	89662	2.1	0
348	89662	2.2	0
348	89662	2.3	0
348	89662	2.4	0
348	89662	2.5	0
348	89662	2.6	0
348	89662	2.7	0
348	89662	2.8	0
348	89662	2.9	0
348	89662	3	0
348	89662	3.1	0
348	89662	3.2	0
348	89662	3.3	0
348	89662	3.4	0
348	89662	3.5	0
348	89662	3.6	0
348	89662	3.7	0
348	89662	3.8	0
348	89662	3.9	0
348	89662	4	0
348	89662	4.1	0
348	89662	4.2	0
348	89662	4.3	0
348	89662	4.4	0
348	89662	4.5	0
348	89662	4.6	0
348	89662	4.7	0
348	89662	4.8	0
348	89662	4.9	0
348	89662	5	0
348	89662	5.1	0
348	89662	5.2	0
348	89662	5.3	0
348	89662	5.4	0
348	89662	5.5	0
348	89662	5.6	0
348	89662	5.7	0
348	89662	5.8	0
348	89662	5.9	0
348	89662	6	0
348	89662	6.1	0
348	89662	6.2	0
348	89662	6.3	0
348	89662	6.4	0
348	89662	6.5	0
348	89662	6.6	0
348	89662	6.7	0
348	89662	6.8	0
348	89662	6.9	0
348	89662	7	0
348	89662	7.1	0
348	89662	7.2	0
348	89662	7.3	0
348	89662	7.4	0
348	89662	7.5	0
348	89662	7.6	0
348	89662	7.7	0
348	89662	7.8	0
348	89662	7.9	0
348	89662	8	0
348	89662	8.1	0
348	89662	8.2	0
348	89662	8.290371546548	0
vector 349 RoutingScenario.node[3].app[0] throughput:vector ETV
attr source throughput(packetReceived)
attr title "throughput, vector"
attr unit bps
349	89662	0.1	0
349	89662	0.2	0
349	89662	0.3	0
349	89662	0.4	0
349	89662	0.5	0
349	89662	0.6	0
349	89662	0.7	0
349	89662	0.8	0
349	89662	0.9	0
349	89662	1	0
349	89662	1.1	0
349	89662	1.2	0
349	89662	1.3	0
349	89662	1.4	0
349	89662	1.5	0
349	89662	1.6	0
349	89662	1.7	0
349	89662	1.8	0
349	89662	1.9	0
349	89662	2	0
349	89662	2.1	0
349	89662	2.2	0
349	89662	2.3	0
349	89662	2.4	0
349	89662	2.5	0
349	89662	2.6	0
349	89662	2.7	0
349	89662	2.8	0
349	89662	2.9	0
349	89662	3	0
349	89662	3.1	0
349	89662	3.2	0
349	89662	3.3	0
349	89662	3.4	0
349	89662	3.5	0
349	89662	3.6	0
349	89662	3.7	0
349	89662	3.8	0
349	89662	3.9	0
349	89662	4	0
349	89662	4.1	0
349	89662	4.2	0
349	89662	4.3	0
349	89662	4.4	0
349	89662	4.5	0
349	89662	4.6	0
349	89662	4.7	0
349	89662	4.8	0
349	89662	4.9	0
349	89662	5	0
349	89662	5.1	0
349	89662	5.2	0
349	89662	5.3	0
349	89662	5.4	0
349	89662	5.5	0
349	89662	5.6	0
349	89662	5.7	0
349	89662	5.8	0
349	89662	5.9	0
349	89662	6	0
349	89662	6.1	0
349	89662	6.2	0
349	89662	6.3	0
349	89662	6.4	0
349	89662	6.5	0
349	89662	6.6	0
349	89662	6.7	0
349	89662	6.8	0
349	89662	6.9	0
349	89662	7	0
349	89662	7.1	0
349	89662	7.2	0
349	89662	7.3	0
349	89662	7.4	0
349	89662	7.5	0
349	89662	7.6	0
349	89662	7.7	0
349	89662	7.8	0
349	89662	7.9	0
349	89662	8	0
349	89662	8.1	0
349	89662	8.2	0
349	89662	8.290371546548	0
vector 350 RoutingScenario.node[4].app[0] throughput:vector ETV
attr source throughput(packetReceived)
attr title "throughput, vector"
attr unit bps
350	89662	0.1	0
350	89662	0.2	0
350	89662	0.3	0
350	89662	0.4	0
350	89662	0.5	0
350	89662	0.6	0
350	89662	0.7	0
350	89662	0.8	0
350	89662	0.9	0
350	89662	1	0
350	89662	1.1	0
350	89662	1.2	0
350	89662	1.3	0
350	89662	1.4	0
350	89662	1.5	0
350	89662	1.6	0
350	89662	1.7	0
350	89662	1.8	0
350	89662	1.9	0
350	89662	2	0
350	89662	2.1	0
350	89662	2.2	0
350	89662	2.3	0
350	89662	2.4	0
350	89662	2.5	0
350	89662	2.6	0
350	89662	2.7	0
350	89662	2.8	0
350	89662	2.9	0
350	89662	3	0
350	89662	3.1	0
350	89662	3.2	0
350	89662	3.3	0
350	89662	3.4	0
350	89662	3.5	0
350	89662	3.6	0
350	89662	3.7	0
350	89662	3.8	0
350	89662	3.9	0
350	89662	4	0
350	89662	4.1	0
350	89662	4.2	0
350	89662	4.3	0
350	89662	4.4	0
350	89662	4.5	0
350	89662	4.6	0
350	89662	4.7	0
350	89662	4.8	0
350	89662	4.9	0
350	89662	5	0
350	89662	5.1	0
350	89662	5.2	0
350	89662	5.3	0
350	89662	5.4	0
350	89662	5.5	0
350	89662	5.6	0
350	89662	5.7	0
350	89662	5.8	0
350	89662	5.9	0
350	89662	6	0
350	89662	6.1	0
350	89662	6.2	0
350	89662	6.3	0
350	89662	6.4	0
350	89662	6.5	0
350	89662	6.6	0
350	89662	6.7	0
350	89662	6.8	0
350	89662	6.9	0
350	89662	7	0
350	89662	7.1	0
350	89662	7.2	0
350	89662	7.3	0
350	89662	7.4	0
350	89662	7.5	0
350	89662	7.6	0
350	89662	7.7	0
350	89662	7.8	0
350	89662	7.9	0
350	89662	8	0
350	89662	8.1	0
350	89662	8.2	0
350	89662	8.290371546548	0
vector 351 RoutingScenario.node[5].app[0] throughput:vector ETV
attr source throughput(packetReceived)
attr title "throughput, vector"
attr unit bps
351	89662	0.1	0
351	89662	0.2	0
351	89662	0.3	0
351	89662	0.4	0
351	89662	0.5	0
351	89662	0.6	0
351	89662	0.7	0
351	89662	0.8	0
351	89662	0.9	0
351	89662	1	0
351	89662	1.1	0
351	89662	1.2	0
351	89662	1.3	0
351	89662	1.4	0
351	89662	1.5	0
351	89662	1.6	0
351	89662	1.7	0
351	89662	1.8	0
351	89662	1.9	0
351	89662	2	0
351	89662	2.1	0
351	89662	2.2	0
351	89662	2.3	0
351	89662	2.4	0
351	89662	2.5	0
351	89662	2.6	0
351	89662	2.7	0
351	89662	2.8	0
351	89662	2.9	0
351	89662	3	0
351	89662	3.1	0
351	89662	3.2	0
351	89662	3.3	0
351	89662	3.4	0
351	89662	3.5	0
351	89662	3.6	0
351	89662	3.7	0
351	89662	3.8	0
351	89662	3.9	0
351	89662	4	0
351	89662	4.1	0
351	89662	4.2	0
351	89662	4.3	0
351	89662	4.4	0
351	89662	4.5	0
351	89662	4.6	0
351	89662	4.7	0
351	89662	4.8	0
351	89662	4.9	0
351	89662	5	0
351	89662	5.1	0
351	89662	5.2	0
351	89662	5.3	0
351	89662	5.4	0
351	89662	5.5	0
351	89662	5.6	0
351	89662	5.7	0
351	89662	5.8	0
351	89662	5.9	0
351	89662	6	0
351	89662	6.1	0
351	89662	6.2	0
351	89662	6.3	0
351	89662	6.4	0
351	89662	6.5	0
351	89662	6.6	0
351	89662	6.7	0
351	89662	6.8	0
351	89662	6.9	0
351	89662	7	0
351	89662	7.1	0
351	89662	7.2	0
351	89662	7.3	0
351	89662	7.4	0
351	89662	7.5	0
351	89662	7.6	0
351	89662	7.7	0
351	89662	7.8	0
351	89662	7.9	0
351	89662	8	0
351	89662	8.1	0
351	89662	8.2	0
351	89662	8.290371546548	0
vector 352 RoutingScenario.node[6].app[0] throughput:vector ETV
attr source throughput(packetReceived)
attr title "throughput, vector"
attr unit bps
352	89662	0.1	0
352	89662	0.2	0
352	89662	0.3	0
352	89662	0.4	0
352	89662	0.5	0
352	89662	0.6	0
352	89662	0.7	0
352	89662	0.8	0
352	89662	0.9	0
352	89662	1	0
352	89662	1.1	0
352	89662	1.2	0
352	89662	1.3	0
352	89662	1.4	0
352	89662	1.5	0
352	89662	1.6	0
352	89662	1.7	0
352	89662	1.8	0
352	89662	1.9	0
352	89662	2	0
352	89662	2.1	0
352	89662	2.2	0
352	89662	2.3	0
352	89662	2.4	0
352	89662	2.5	0
352	89662	2.6	0
352	89662	2.7	0
352	89662	2.8	0
352	89662	2.9	0
352	89662	3	0
352	89662	3.1	0
352	89662	3.2	0
352	89662	3.3	0
352	89662	3.4	0
352	89662	3.5	0
352	89662	3.6	0
352	89662	3.7	0
352	89662	3.8	0
352	89662	3.9	0
352	89662	4	0
352	89662	4.1	0
352	89662	4.2	0
352	89662	4.3	0
352	89662	4.4	0
352	89662	4.5	0
352	89662	4.6	0
352	89662	4.7	0
352	89662	4.8	0
352	89662	4.9	0
352	89662	5	0
352	89662	5.1	0
352	89662	5.2	0
352	89662	5.3	0
352	89662	5.4	0
352	89662	5.5	0
352	89662	5.6	0
352	89662	5.7	0
352	89662	5.8	0
352	89662	5.9	0
352	89662	6	0
352	89662	6.1	0
352	89662	6.2	0
352	89662	6.3	0
352	89662	6.4	0
352	89662	6.5	0
352	89662	6.6	0
352	89662	6.7	0
352	89662	6.8	0
352	89662	6.9	0
352	89662	7	0
352	89662	7.1	0
352	89662	7.2	0
352	89662	7.3	0
352	89662	7.4	0
352	89662	7.5	0
352	89662	7.6	0
352	89662	7.7	0
352	89662	7.8	0
352	89662	7.9	0
352	89662	8	0
352	89662	8.1	0
352	89662	8.2	0
352	89662	8.290371546548	0
vector 353 RoutingScenario.node[7].app[0] throughput:vector ETV
attr source throughput(packetReceived)
attr title "throughput, vector"
attr unit bps
353	89662	0.1	0
353	89662	0.2	0
353	89662	0.3	0
353	89662	0.4	0
353	89662	0.5	0
353	89662	0.6	0
353	89662	0.7	0
353	89662	0.8	0
353	89662	0.9	0
353	89662	1	0
353	89662	1.1	0
353	89662	1.2	0
353	89662	1.3	0
353	89662	1.4	0
353	89662	1.5	0
353	89662	1.6	0
353	89662	1.7	0
353	89662	1.8	0
353	89662	1.9	0
353	89662	2	0
353	89662	2.1	0
353	89662	2.2	0
353	89662	2.3	0
353	89662	2.4	0
353	89662	2.5	0
353	89662	2.6	0
353	89662	2.7	0
353	89662	2.8	0
353	89662	2.9	0
353	89662	3	0
353	89662	3.1	0
353	89662	3.2	0
353	89662	3.3	0
353	89662	3.4	0
353	89662	3.5	0
353	89662	3.6	0
353	89662	3.7	0
353	89662	3.8	0
353	89662	3.9	0
353	89662	4	0
353	89662	4.1	0
353	89662	4.2	0
353	89662	4.3	0
353	89662	4.4	0
353	89662	4.5	0
353	89662	4.6	0
353	89662	4.7	0
353	89662	4.8	0
353	89662	4.9	0
353	89662	5	0
353	89662	5.1	0
353	89662	5.2	0
353	89662	5.3	0
353	89662	5.4	0
353	89662	5.5	0
353	89662	5.6	0
353	89662	5.7	0
353	89662	5.8	0
353	89662	5.9	0
353	89662	6	0
353	89662	6.1	0
353	89662	6.2	0
353	89662	6.3	0
353	89662	6.4	0
353	89662	6.5	0
353	89662	6.6	0
353	89662	6.7	0
353	89662	6.8	0
353	89662	6.9	0
353	89662	7	0
353	89662	7.1	0
353	89662	7.2	0
353	89662	7.3	0
353	89662	7.4	0
353	89662	7.5	0
353	89662	7.6	0
353	89662	7.7	0
353	89662	7.8	0
353	89662	7.9	0
353	89662	8	0
353	89662	8.1	0
353	89662	8.2	0
353	89662	8.290371546548	0
vector 354 RoutingScenario.node[8].app[0] throughput:vector ETV
attr source throughput(packetReceived)
attr title "throughput, vector"
attr unit bps
354	89662	0.1	0
354	89662	0.2	0
354	89662	0.3	0
354	89662	0.4	0
354	89662	0.5	0
354	89662	0.6	0
354	89662	0.7	0
354	89662	0.8	0
354	89662	0.9	0
354	89662	1	0
354	89662	1.1	0
354	89662	1.2	0
354	89662	1.3	0
354	89662	1.4	0
354	89662	1.5	0
354	89662	1.6	0
354	89662	1.7	0
354	89662	1.8	0
354	89662	1.9	0
354	89662	2	0
354	89662	2.1	0
354	89662	2.2	0
354	89662	2.3	0
354	89662	2.4	0
354	89662	2.5	0
354	89662	2.6	0
354	89662	2.7	0
354	89662	2.8	0
354	89662	2.9	0
354	89662	3	0
354	89662	3.1	0
354	89662	3.2	0
354	89662	3.3	0
354	89662	3.4	0
354	89662	3.5	0
354	89662	3.6	0
354	89662	3.7	0
354	89662	3.8	0
354	89662	3.9	0
354	89662	4	0
354	89662	4.1	0
354	89662	4.2	0
354	89662	4.3	0
354	89662	4.4	0
354	89662	4.5	0
354	89662	4.6	0
354	89662	4.7	0
354	89662	4.8	0
354	89662	4.9	0
354	89662	5	0
354	89662	5.1	0
354	89662	5.2	0
354	89662	5.3	0
354	89662	5.4	0
354	89662	5.5	0
354	89662	5.6	0
354	89662	5.7	0
354	89662	5.8	0
354	89662	5.9	0
354	89662	6	0
354	89662	6.1	0
354	89662	6.2	0
354	89662	6.3	0
354	89662	6.4	0
354	89662	6.5	0
354	89662	6.6	0
354	89662	6.7	0
354	89662	6.8	0
354	89662	6.9	0
354	89662	7	0
354	89662	7.1	0
354	89662	7.2	0
354	89662	7.3	0
354	89662	7.4	0
354	89662	7.5	0
354	89662	7.6	0
354	89662	7.7	0
354	89662	7.8	0
354	89662	7.9	0
354	89662	8	0
354	89662	8.1	0
354	89662	8.2	0
354	89662	8.290371546548	0

