version 2
run canvas-0-20210504-15:23:40-30512
attr configname canvas
attr datetime 20210504-15:23:40
attr experiment canvas
attr inifile omnetpp.ini
attr iterationvars ""
attr iterationvarsf ""
attr measurement ""
attr network RoutingScenario
attr processid 30512
attr repetition 0
attr replication #0
attr resultdir results
attr runnumber 0
attr seedset 0
param *.visualizer.*.obstacleLossVisualizer.displayIntersections true
param *.visualizer.*.obstacleLossVisualizer.displayFaceNormalVectors true
param *.visualizer.*.obstacleLossVisualizer.intersectionLineColor "\"yellow\""
param *.visualizer.*.mediumVisualizer.signalPropagationAnimationSpeed 500/3e8
param *.visualizer.*.mediumVisualizer.signalTransmissionAnimationSpeed 50000/3e8
param *.visualizer.*.mediumVisualizer.displaySignals true
param *.visualizer.canvasVisualizer.mediumVisualizer.displaySignalDepartures false
param *.visualizer.canvasVisualizer.mediumVisualizer.displaySignalArrivals false
param *.visualizer.*.physicalLinkVisualizer.displayLinks true
param *.visualizer.*.mobilityVisualizer.displayPositions true
param *.visualizer.*.mobilityVisualizer.displayOrientations true
param *.visualizer.*.mobilityVisualizer.displayVelocities true
param *.visualizer.*.mobilityVisualizer.displayMovementTrails true
param *.visualizer.*.mobilityVisualizer.moduleFilter "\"**.antenna.mobility\""
param *.node[*].router "\"Aodv\""
param RoutingScenario.numV 25
param *.node[*].numApps 1
param *.node[*].app[0].typename "\"UdpBasicApp\""
param *.node[*].app[0].destAddresses "\"node[*]\""
param *.node[*].app[0].destPort 5000
param *.node[*].app[0].messageLength 1000B
param *.node[*].app[0].sendInterval exponential(12ms)
param *.node[*].app[0].packetName "\"UDPData\""
param *.node[*].wlan[0].opMode "\"p\""
param *.node[*].wlan[0].radio.bandName "\"5.9 GHz\""
param *.node[*].wlan[0].radio.channelNumber 3
param *.node[*].wlan[0].radio.transmitter.power 20mW
param *.node[*].wlan[0].radio.bandwidth "10 MHz"
param *.node[*].ipv4.configurator.typename "\"HostAutoConfigurator\""
param *.node[*].ipv4.configurator.interfaces "\"wlan0\""
param *.node[*].ipv4.configurator.mcastGroups "\"224.0.0.1\""
param *.node[*].mobility.typename "\"VeinsInetMobility\""
param *.node[*].mobility.speed 20mps
param *.manager.updateInterval 0.1s
param *.manager.host "\"localhost\""
param *.manager.port 9999
param *.manager.autoShutdown true
param *.manager.launchConfig "xmldoc(\"downtown.launchd.xml\")"
param *.manager.moduleType "\"vanetnetsec.veins_inet.VeinsInetRoutingCar\""
param *.physicalEnvironment.config "xmldoc(\"obstacles.xml\")"
param *.radioMedium.obstacleLoss.typename "\"IdealObstacleLoss\""

vector 0 RoutingScenario.node[0].wlan[0].radio radioMode:vector ETV
attr interpolationmode sample-hold
attr source radioModeChanged
attr title "Radio mode, vector"
vector 1 RoutingScenario.node[0].wlan[0].radio radioChannel:vector ETV
attr interpolationmode sample-hold
attr source radioChannelChanged
attr title "Radio channel, vector"
vector 2 RoutingScenario.node[0].wlan[0].radio receptionState:vector ETV
attr interpolationmode sample-hold
attr source receptionStateChanged
attr title "Radio reception state, vector"
vector 3 RoutingScenario.node[0].wlan[0].mac.dcf.recoveryProcedure contentionWindowChanged:vector ETV
attr interpolationmode sample-hold
attr title "contention window, vector"
vector 4 RoutingScenario.node[0].app[0] packetSent:vector(packetBytes) ETV
attr interpolationmode none
attr source packetSent
attr title "packets sent, vector(packetBytes)"
vector 5 RoutingScenario.node[0].udp packetSent:vector(packetBytes) ETV
attr interpolationmode none
attr source packetSent
attr title "packets sent, vector(packetBytes)"
vector 6 RoutingScenario.node[0].lo[0].lo rcvdPkFromHl:vector(packetBytes) ETV
attr interpolationmode none
attr source packetReceivedFromUpper
attr title "packets received from higher layer, vector(packetBytes)"
vector 7 RoutingScenario.node[0].lo[0].lo passedUpPk:vector(packetBytes) ETV
attr interpolationmode none
attr source packetSentToUpper
attr title "packets passed to higher layer, vector(packetBytes)"
vector 8 RoutingScenario.node[0].udp packetReceived:vector(packetBytes) ETV
attr interpolationmode none
attr source packetReceived
attr title "packets received, vector(packetBytes)"
vector 9 RoutingScenario.node[0].udp droppedPkWrongPort:vector(count) ETV
attr interpolationmode none
attr source packetDropReasonIsNoPortFound(packetDropped)
attr title "packets dropped (wrong port), vector(count)"
vector 10 RoutingScenario.node[1].wlan[0].radio radioMode:vector ETV
attr interpolationmode sample-hold
attr source radioModeChanged
attr title "Radio mode, vector"
vector 11 RoutingScenario.node[1].wlan[0].radio radioChannel:vector ETV
attr interpolationmode sample-hold
attr source radioChannelChanged
attr title "Radio channel, vector"
vector 12 RoutingScenario.node[1].wlan[0].radio receptionState:vector ETV
attr interpolationmode sample-hold
attr source receptionStateChanged
attr title "Radio reception state, vector"
vector 13 RoutingScenario.node[1].wlan[0].mac.dcf.recoveryProcedure contentionWindowChanged:vector ETV
attr interpolationmode sample-hold
attr title "contention window, vector"
vector 14 RoutingScenario.node[1].app[0] packetSent:vector(packetBytes) ETV
attr interpolationmode none
attr source packetSent
attr title "packets sent, vector(packetBytes)"
vector 15 RoutingScenario.node[1].udp packetSent:vector(packetBytes) ETV
attr interpolationmode none
attr source packetSent
attr title "packets sent, vector(packetBytes)"
vector 16 RoutingScenario.node[1].wlan[0].mac packetReceivedFromUpper:vector(packetBytes) ETV
attr interpolationmode none
attr title "packets received from upper layer, vector(packetBytes)"
vector 17 RoutingScenario.node[1].wlan[0].mac.dcf.channelAccess.pendingQueue packetPushed:vector(packetBytes) ETV
attr interpolationmode none
attr title "packet pushed, vector(packetBytes)"
vector 18 RoutingScenario.node[1].wlan[0].mac.dcf.channelAccess.pendingQueue queueLength:vector ETV
attr interpolationmode sample-hold
attr source "count(packetPushed) - count(packetPopped) - count(packetRemoved) - count(packetDropped)"
attr title "queue length, vector"
vector 19 RoutingScenario.node[1].wlan[0].mac.dcf.channelAccess.contention backoffPeriodGenerated:vector ETV
attr interpolationmode none
attr title "backoff periods, vector"
vector 20 RoutingScenario.node[1].wlan[0].mac.dcf.channelAccess.contention backoffActive:vector ETV
attr interpolationmode sample-hold
attr source count(backoffStarted)-count(backoffStopped)
attr title "backoff active, vector"
vector 21 RoutingScenario.node[1].wlan[0].mac.dcf.channelAccess.pendingQueue packetPopped:vector(packetBytes) ETV
attr interpolationmode none
attr title "packet popped, vector(packetBytes)"
vector 22 RoutingScenario.node[1].wlan[0].mac.dcf.channelAccess.pendingQueue queueingTime:vector ETV
attr interpolationmode none
attr source queueingTime(packetPopped)
attr title "queueing times, vector"
attr unit s
vector 23 RoutingScenario.node[1].wlan[0].mac.dcf.channelAccess.inProgressFrames queueLength:vector ETV
attr interpolationmode sample-hold
attr source "count(packetEnqueued) - count(packetDequeued)"
attr title "queue length, vector"
vector 24 RoutingScenario.node[1].wlan[0].mac.dcf datarateSelected:vector ETV
attr interpolationmode none
attr title "datarates selected, vector"
vector 25 RoutingScenario.node[1].wlan[0].mac packetSentToLower:vector(packetBytes) ETV
attr interpolationmode none
attr title "packets sent to lower layer, vector(packetBytes)"
vector 26 RoutingScenario.node[1].wlan[0].mac.dcf frameSequenceActive:vector ETV
attr interpolationmode sample-hold
attr source count(frameSequenceStarted)-count(frameSequenceFinished)
attr title "frame sequence active, vector"
vector 27 RoutingScenario.node[1].wlan[0].radio transmissionState:vector ETV
attr interpolationmode sample-hold
attr source transmissionStateChanged
attr title "Radio transmission state, vector"
vector 28 RoutingScenario.node[1].wlan[0].mac.dcf packetSentToPeer:vector(packetBytes) ETV
attr interpolationmode none
attr title "packets sent, vector(packetBytes)"
vector 29 RoutingScenario.node[1].wlan[0].mac.dcf packetSentToPeerMulticast:vector(packetBytes) ETV
attr interpolationmode none
attr source ieee80211Multicast(packetSentToPeer)
attr title "packets sent: multicast, vector(packetBytes)"
vector 30 RoutingScenario.node[1].wlan[0].mac.dcf packetSentToPeerBroadcast:vector(packetBytes) ETV
attr interpolationmode none
attr source ieee80211Broadcast(packetSentToPeer)
attr title "packets sent: broadcast , vector(packetBytes)"
vector 31 RoutingScenario.node[1].wlan[0].mac.dcf packetSentToPeerWithoutRetry:vector(packetBytes) ETV
attr interpolationmode none
attr source ieee80211NotRetry(packetSentToPeer)
attr title "packets sent: without retry, vector(packetBytes)"
vector 32 RoutingScenario.node[1].wlan[0].mac.dcf.channelAccess.inProgressFrames queueingTime:vector ETV
attr interpolationmode none
attr source queueingTime(packetDequeued)
attr title "queueing times, vector"
vector 33 RoutingScenario.node[2].wlan[0].radio radioMode:vector ETV
attr interpolationmode sample-hold
attr source radioModeChanged
attr title "Radio mode, vector"
vector 34 RoutingScenario.node[2].wlan[0].radio radioChannel:vector ETV
attr interpolationmode sample-hold
attr source radioChannelChanged
attr title "Radio channel, vector"
vector 35 RoutingScenario.node[2].wlan[0].radio receptionState:vector ETV
attr interpolationmode sample-hold
attr source receptionStateChanged
attr title "Radio reception state, vector"
vector 36 RoutingScenario.node[2].wlan[0].mac.dcf.recoveryProcedure contentionWindowChanged:vector ETV
attr interpolationmode sample-hold
attr title "contention window, vector"
vector 37 RoutingScenario.node[2].app[0] packetSent:vector(packetBytes) ETV
attr interpolationmode none
attr source packetSent
attr title "packets sent, vector(packetBytes)"
vector 38 RoutingScenario.node[2].udp packetSent:vector(packetBytes) ETV
attr interpolationmode none
attr source packetSent
attr title "packets sent, vector(packetBytes)"
vector 39 RoutingScenario.node[2].wlan[0].mac packetReceivedFromUpper:vector(packetBytes) ETV
attr interpolationmode none
attr title "packets received from upper layer, vector(packetBytes)"
vector 40 RoutingScenario.node[2].wlan[0].mac.dcf.channelAccess.pendingQueue packetPushed:vector(packetBytes) ETV
attr interpolationmode none
attr title "packet pushed, vector(packetBytes)"
vector 41 RoutingScenario.node[2].wlan[0].mac.dcf.channelAccess.pendingQueue queueLength:vector ETV
attr interpolationmode sample-hold
attr source "count(packetPushed) - count(packetPopped) - count(packetRemoved) - count(packetDropped)"
attr title "queue length, vector"
vector 42 RoutingScenario.node[2].wlan[0].mac.dcf.channelAccess.contention backoffPeriodGenerated:vector ETV
attr interpolationmode none
attr title "backoff periods, vector"
vector 43 RoutingScenario.node[2].wlan[0].mac.dcf.channelAccess.contention backoffActive:vector ETV
attr interpolationmode sample-hold
attr source count(backoffStarted)-count(backoffStopped)
attr title "backoff active, vector"
vector 44 RoutingScenario.node[2].wlan[0].mac.dcf.channelAccess.pendingQueue packetPopped:vector(packetBytes) ETV
attr interpolationmode none
attr title "packet popped, vector(packetBytes)"
vector 45 RoutingScenario.node[2].wlan[0].mac.dcf.channelAccess.pendingQueue queueingTime:vector ETV
attr interpolationmode none
attr source queueingTime(packetPopped)
attr title "queueing times, vector"
attr unit s
vector 46 RoutingScenario.node[2].wlan[0].mac.dcf.channelAccess.inProgressFrames queueLength:vector ETV
attr interpolationmode sample-hold
attr source "count(packetEnqueued) - count(packetDequeued)"
attr title "queue length, vector"
vector 47 RoutingScenario.node[2].wlan[0].mac.dcf datarateSelected:vector ETV
attr interpolationmode none
attr title "datarates selected, vector"
vector 48 RoutingScenario.node[2].wlan[0].mac packetSentToLower:vector(packetBytes) ETV
attr interpolationmode none
attr title "packets sent to lower layer, vector(packetBytes)"
vector 49 RoutingScenario.node[2].wlan[0].mac.dcf frameSequenceActive:vector ETV
attr interpolationmode sample-hold
attr source count(frameSequenceStarted)-count(frameSequenceFinished)
attr title "frame sequence active, vector"
vector 50 RoutingScenario.node[2].wlan[0].radio transmissionState:vector ETV
attr interpolationmode sample-hold
attr source transmissionStateChanged
attr title "Radio transmission state, vector"
vector 51 RoutingScenario.node[2].wlan[0].mac.dcf packetSentToPeer:vector(packetBytes) ETV
attr interpolationmode none
attr title "packets sent, vector(packetBytes)"
vector 52 RoutingScenario.node[2].wlan[0].mac.dcf packetSentToPeerMulticast:vector(packetBytes) ETV
attr interpolationmode none
attr source ieee80211Multicast(packetSentToPeer)
attr title "packets sent: multicast, vector(packetBytes)"
vector 53 RoutingScenario.node[2].wlan[0].mac.dcf packetSentToPeerBroadcast:vector(packetBytes) ETV
attr interpolationmode none
attr source ieee80211Broadcast(packetSentToPeer)
attr title "packets sent: broadcast , vector(packetBytes)"
vector 54 RoutingScenario.node[2].wlan[0].mac.dcf packetSentToPeerWithoutRetry:vector(packetBytes) ETV
attr interpolationmode none
attr source ieee80211NotRetry(packetSentToPeer)
attr title "packets sent: without retry, vector(packetBytes)"
vector 55 RoutingScenario.node[2].wlan[0].mac.dcf.channelAccess.inProgressFrames queueingTime:vector ETV
attr interpolationmode none
attr source queueingTime(packetDequeued)
attr title "queueing times, vector"
vector 56 RoutingScenario.node[0].wlan[0].mac packetReceivedFromLower:vector(packetBytes) ETV
attr interpolationmode none
attr title "packets received from lower layer, vector(packetBytes)"
vector 57 RoutingScenario.node[0].wlan[0].mac.dcf packetReceivedFromPeer:vector(packetBytes) ETV
attr interpolationmode none
attr title "packets received, vector(packetBytes)"
vector 58 RoutingScenario.node[0].wlan[0].mac.dcf packetReceivedFromPeerMulticast:vector(packetBytes) ETV
attr interpolationmode none
attr source ieee80211Multicast(packetReceivedFromPeer)
attr title "packets received: multicast, vector(packetBytes)"
vector 59 RoutingScenario.node[0].wlan[0].mac.dcf packetReceivedFromPeerBroadcast:vector(packetBytes) ETV
attr interpolationmode none
attr source ieee80211Broadcast(packetReceivedFromPeer)
attr title "packets received: broadcast, vector(packetBytes)"
vector 60 RoutingScenario.node[0].wlan[0].mac.dcf packetReceivedFromPeerWithoutRetry:vector(packetBytes) ETV
attr interpolationmode none
attr source ieee80211NotRetry(packetReceivedFromPeer)
attr title "packets received: without retry, vector(packetBytes)"
vector 61 RoutingScenario.node[0].wlan[0].mac packetSentToUpper:vector(packetBytes) ETV
attr interpolationmode none
attr title "packets sent to upper layer, vector(packetBytes)"
vector 62 RoutingScenario.node[0].udp passedUpPk:vector(count) ETV
attr interpolationmode none
attr source packetSentToUpper
attr title "packets passed up, vector(count)"
vector 63 RoutingScenario.node[0].ipv4.arp arpRequestSent:vector(packetBytes) ETV
attr source arpRequestSent
attr title "ARP request sent, vector(packetBytes)"
vector 64 RoutingScenario.node[0].wlan[0].mac packetReceivedFromUpper:vector(packetBytes) ETV
attr interpolationmode none
attr title "packets received from upper layer, vector(packetBytes)"
vector 65 RoutingScenario.node[0].wlan[0].mac.dcf.channelAccess.pendingQueue packetPushed:vector(packetBytes) ETV
attr interpolationmode none
attr title "packet pushed, vector(packetBytes)"
vector 66 RoutingScenario.node[0].wlan[0].mac.dcf.channelAccess.pendingQueue queueLength:vector ETV
attr interpolationmode sample-hold
attr source "count(packetPushed) - count(packetPopped) - count(packetRemoved) - count(packetDropped)"
attr title "queue length, vector"
vector 67 RoutingScenario.node[0].wlan[0].mac.dcf.channelAccess.contention backoffPeriodGenerated:vector ETV
attr interpolationmode none
attr title "backoff periods, vector"
vector 68 RoutingScenario.node[0].wlan[0].mac.dcf.channelAccess.contention backoffActive:vector ETV
attr interpolationmode sample-hold
attr source count(backoffStarted)-count(backoffStopped)
attr title "backoff active, vector"
vector 69 RoutingScenario.node[0].wlan[0].mac.dcf.channelAccess.pendingQueue packetPopped:vector(packetBytes) ETV
attr interpolationmode none
attr title "packet popped, vector(packetBytes)"
vector 70 RoutingScenario.node[0].wlan[0].mac.dcf.channelAccess.pendingQueue queueingTime:vector ETV
attr interpolationmode none
attr source queueingTime(packetPopped)
attr title "queueing times, vector"
attr unit s
vector 71 RoutingScenario.node[0].wlan[0].mac.dcf.channelAccess.inProgressFrames queueLength:vector ETV
attr interpolationmode sample-hold
attr source "count(packetEnqueued) - count(packetDequeued)"
attr title "queue length, vector"
vector 72 RoutingScenario.node[0].wlan[0].mac.dcf datarateSelected:vector ETV
attr interpolationmode none
attr title "datarates selected, vector"
vector 73 RoutingScenario.node[0].wlan[0].mac packetSentToLower:vector(packetBytes) ETV
attr interpolationmode none
attr title "packets sent to lower layer, vector(packetBytes)"
vector 74 RoutingScenario.node[0].wlan[0].mac.dcf frameSequenceActive:vector ETV
attr interpolationmode sample-hold
attr source count(frameSequenceStarted)-count(frameSequenceFinished)
attr title "frame sequence active, vector"
vector 75 RoutingScenario.node[0].wlan[0].radio transmissionState:vector ETV
attr interpolationmode sample-hold
attr source transmissionStateChanged
attr title "Radio transmission state, vector"
vector 76 RoutingScenario.node[0].wlan[0].mac.dcf packetSentToPeer:vector(packetBytes) ETV
attr interpolationmode none
attr title "packets sent, vector(packetBytes)"
vector 77 RoutingScenario.node[0].wlan[0].mac.dcf packetSentToPeerMulticast:vector(packetBytes) ETV
attr interpolationmode none
attr source ieee80211Multicast(packetSentToPeer)
attr title "packets sent: multicast, vector(packetBytes)"
vector 78 RoutingScenario.node[0].wlan[0].mac.dcf packetSentToPeerBroadcast:vector(packetBytes) ETV
attr interpolationmode none
attr source ieee80211Broadcast(packetSentToPeer)
attr title "packets sent: broadcast , vector(packetBytes)"
vector 79 RoutingScenario.node[0].wlan[0].mac.dcf packetSentToPeerWithoutRetry:vector(packetBytes) ETV
attr interpolationmode none
attr source ieee80211NotRetry(packetSentToPeer)
attr title "packets sent: without retry, vector(packetBytes)"
vector 80 RoutingScenario.node[0].wlan[0].mac.dcf.channelAccess.inProgressFrames queueingTime:vector ETV
attr interpolationmode none
attr source queueingTime(packetDequeued)
attr title "queueing times, vector"
vector 81 RoutingScenario.node[2].wlan[0].mac packetReceivedFromLower:vector(packetBytes) ETV
attr interpolationmode none
attr title "packets received from lower layer, vector(packetBytes)"
vector 82 RoutingScenario.node[2].wlan[0].mac.dcf packetReceivedFromPeer:vector(packetBytes) ETV
attr interpolationmode none
attr title "packets received, vector(packetBytes)"
vector 83 RoutingScenario.node[2].wlan[0].mac.dcf packetReceivedFromPeerMulticast:vector(packetBytes) ETV
attr interpolationmode none
attr source ieee80211Multicast(packetReceivedFromPeer)
attr title "packets received: multicast, vector(packetBytes)"
vector 84 RoutingScenario.node[2].wlan[0].mac.dcf packetReceivedFromPeerBroadcast:vector(packetBytes) ETV
attr interpolationmode none
attr source ieee80211Broadcast(packetReceivedFromPeer)
attr title "packets received: broadcast, vector(packetBytes)"
vector 85 RoutingScenario.node[2].wlan[0].mac.dcf packetReceivedFromPeerWithoutRetry:vector(packetBytes) ETV
attr interpolationmode none
attr source ieee80211NotRetry(packetReceivedFromPeer)
attr title "packets received: without retry, vector(packetBytes)"
vector 86 RoutingScenario.node[2].wlan[0].mac packetSentToUpper:vector(packetBytes) ETV
attr interpolationmode none
attr title "packets sent to upper layer, vector(packetBytes)"
vector 87 RoutingScenario.node[2].ipv4.arp arpReplySent:vector(packetBytes) ETV
attr source arpReplySent
attr title "ARP replies sent, vector(packetBytes)"
vector 88 RoutingScenario.node[2].wlan[0].mac.dcf packetSentToPeerUnicast:vector(packetBytes) ETV
attr interpolationmode none
attr source ieee80211Unicast(packetSentToPeer)
attr title "packets sent: unicast, vector(packetBytes)"
vector 89 RoutingScenario.node[2].wlan[0].mac.rx nav:vector ETV
attr interpolationmode linear
attr source navChanged
attr title "network allocation vector, vector"
vector 90 RoutingScenario.node[0].wlan[0].mac.dcf packetReceivedFromPeerUnicast:vector(packetBytes) ETV
attr interpolationmode none
attr source ieee80211Unicast(packetReceivedFromPeer)
attr title "packets received: unicast, vector(packetBytes)"
vector 91 RoutingScenario.node[0].wlan[0].mac.dcf packetSentToPeerUnicast:vector(packetBytes) ETV
attr interpolationmode none
attr source ieee80211Unicast(packetSentToPeer)
attr title "packets sent: unicast, vector(packetBytes)"
vector 92 RoutingScenario.node[2].wlan[0].mac.dcf packetReceivedFromPeerUnicast:vector(packetBytes) ETV
attr interpolationmode none
attr source ieee80211Unicast(packetReceivedFromPeer)
attr title "packets received: unicast, vector(packetBytes)"
vector 93 RoutingScenario.node[0].wlan[0].mac.rx nav:vector ETV
attr interpolationmode linear
attr source navChanged
attr title "network allocation vector, vector"
vector 94 RoutingScenario.node[2].udp packetReceived:vector(packetBytes) ETV
attr interpolationmode none
attr source packetReceived
attr title "packets received, vector(packetBytes)"
vector 95 RoutingScenario.node[2].udp passedUpPk:vector(count) ETV
attr interpolationmode none
attr source packetSentToUpper
attr title "packets passed up, vector(count)"
vector 96 RoutingScenario.node[3].wlan[0].radio radioMode:vector ETV
attr interpolationmode sample-hold
attr source radioModeChanged
attr title "Radio mode, vector"
vector 97 RoutingScenario.node[3].wlan[0].radio radioChannel:vector ETV
attr interpolationmode sample-hold
attr source radioChannelChanged
attr title "Radio channel, vector"
vector 98 RoutingScenario.node[3].wlan[0].radio receptionState:vector ETV
attr interpolationmode sample-hold
attr source receptionStateChanged
attr title "Radio reception state, vector"
vector 99 RoutingScenario.node[3].wlan[0].mac.dcf.recoveryProcedure contentionWindowChanged:vector ETV
attr interpolationmode sample-hold
attr title "contention window, vector"
vector 100 RoutingScenario.node[3].app[0] packetSent:vector(packetBytes) ETV
attr interpolationmode none
attr source packetSent
attr title "packets sent, vector(packetBytes)"
vector 101 RoutingScenario.node[3].udp packetSent:vector(packetBytes) ETV
attr interpolationmode none
attr source packetSent
attr title "packets sent, vector(packetBytes)"
vector 102 RoutingScenario.node[3].wlan[0].mac packetReceivedFromUpper:vector(packetBytes) ETV
attr interpolationmode none
attr title "packets received from upper layer, vector(packetBytes)"
vector 103 RoutingScenario.node[3].wlan[0].mac.dcf.channelAccess.pendingQueue packetPushed:vector(packetBytes) ETV
attr interpolationmode none
attr title "packet pushed, vector(packetBytes)"
vector 104 RoutingScenario.node[3].wlan[0].mac.dcf.channelAccess.pendingQueue queueLength:vector ETV
attr interpolationmode sample-hold
attr source "count(packetPushed) - count(packetPopped) - count(packetRemoved) - count(packetDropped)"
attr title "queue length, vector"
vector 105 RoutingScenario.node[3].wlan[0].mac.dcf.channelAccess.contention backoffPeriodGenerated:vector ETV
attr interpolationmode none
attr title "backoff periods, vector"
vector 106 RoutingScenario.node[3].wlan[0].mac.dcf.channelAccess.contention backoffActive:vector ETV
attr interpolationmode sample-hold
attr source count(backoffStarted)-count(backoffStopped)
attr title "backoff active, vector"
vector 107 RoutingScenario.node[3].wlan[0].mac.dcf.channelAccess.pendingQueue packetPopped:vector(packetBytes) ETV
attr interpolationmode none
attr title "packet popped, vector(packetBytes)"
vector 108 RoutingScenario.node[3].wlan[0].mac.dcf.channelAccess.pendingQueue queueingTime:vector ETV
attr interpolationmode none
attr source queueingTime(packetPopped)
attr title "queueing times, vector"
attr unit s
vector 109 RoutingScenario.node[3].wlan[0].mac.dcf.channelAccess.inProgressFrames queueLength:vector ETV
attr interpolationmode sample-hold
attr source "count(packetEnqueued) - count(packetDequeued)"
attr title "queue length, vector"
vector 110 RoutingScenario.node[3].wlan[0].mac.dcf datarateSelected:vector ETV
attr interpolationmode none
attr title "datarates selected, vector"
vector 111 RoutingScenario.node[3].wlan[0].mac packetSentToLower:vector(packetBytes) ETV
attr interpolationmode none
attr title "packets sent to lower layer, vector(packetBytes)"
vector 112 RoutingScenario.node[3].wlan[0].mac.dcf frameSequenceActive:vector ETV
attr interpolationmode sample-hold
attr source count(frameSequenceStarted)-count(frameSequenceFinished)
attr title "frame sequence active, vector"
vector 113 RoutingScenario.node[3].wlan[0].radio transmissionState:vector ETV
attr interpolationmode sample-hold
attr source transmissionStateChanged
attr title "Radio transmission state, vector"
vector 114 RoutingScenario.node[3].wlan[0].mac.dcf packetSentToPeer:vector(packetBytes) ETV
attr interpolationmode none
attr title "packets sent, vector(packetBytes)"
vector 115 RoutingScenario.node[3].wlan[0].mac.dcf packetSentToPeerMulticast:vector(packetBytes) ETV
attr interpolationmode none
attr source ieee80211Multicast(packetSentToPeer)
attr title "packets sent: multicast, vector(packetBytes)"
vector 116 RoutingScenario.node[3].wlan[0].mac.dcf packetSentToPeerBroadcast:vector(packetBytes) ETV
attr interpolationmode none
attr source ieee80211Broadcast(packetSentToPeer)
attr title "packets sent: broadcast , vector(packetBytes)"
vector 117 RoutingScenario.node[3].wlan[0].mac.dcf packetSentToPeerWithoutRetry:vector(packetBytes) ETV
attr interpolationmode none
attr source ieee80211NotRetry(packetSentToPeer)
attr title "packets sent: without retry, vector(packetBytes)"
vector 118 RoutingScenario.node[3].wlan[0].mac.dcf.channelAccess.inProgressFrames queueingTime:vector ETV
attr interpolationmode none
attr source queueingTime(packetDequeued)
attr title "queueing times, vector"
vector 119 RoutingScenario.node[2].ipv4.arp arpRequestSent:vector(packetBytes) ETV
attr source arpRequestSent
attr title "ARP request sent, vector(packetBytes)"
vector 120 RoutingScenario.node[3].wlan[0].mac packetReceivedFromLower:vector(packetBytes) ETV
attr interpolationmode none
attr title "packets received from lower layer, vector(packetBytes)"
vector 121 RoutingScenario.node[3].wlan[0].mac.dcf packetReceivedFromPeer:vector(packetBytes) ETV
attr interpolationmode none
attr title "packets received, vector(packetBytes)"
vector 122 RoutingScenario.node[3].wlan[0].mac.dcf packetReceivedFromPeerMulticast:vector(packetBytes) ETV
attr interpolationmode none
attr source ieee80211Multicast(packetReceivedFromPeer)
attr title "packets received: multicast, vector(packetBytes)"
vector 123 RoutingScenario.node[3].wlan[0].mac.dcf packetReceivedFromPeerBroadcast:vector(packetBytes) ETV
attr interpolationmode none
attr source ieee80211Broadcast(packetReceivedFromPeer)
attr title "packets received: broadcast, vector(packetBytes)"
vector 124 RoutingScenario.node[3].wlan[0].mac.dcf packetReceivedFromPeerWithoutRetry:vector(packetBytes) ETV
attr interpolationmode none
attr source ieee80211NotRetry(packetReceivedFromPeer)
attr title "packets received: without retry, vector(packetBytes)"
vector 125 RoutingScenario.node[3].wlan[0].mac packetSentToUpper:vector(packetBytes) ETV
attr interpolationmode none
attr title "packets sent to upper layer, vector(packetBytes)"
vector 126 RoutingScenario.node[3].ipv4.arp arpReplySent:vector(packetBytes) ETV
attr source arpReplySent
attr title "ARP replies sent, vector(packetBytes)"
vector 127 RoutingScenario.node[3].wlan[0].mac.dcf packetSentToPeerUnicast:vector(packetBytes) ETV
attr interpolationmode none
attr source ieee80211Unicast(packetSentToPeer)
attr title "packets sent: unicast, vector(packetBytes)"
vector 128 RoutingScenario.node[3].wlan[0].mac.rx nav:vector ETV
attr interpolationmode linear
attr source navChanged
attr title "network allocation vector, vector"
vector 129 RoutingScenario.node[3].wlan[0].mac.dcf packetReceivedFromPeerUnicast:vector(packetBytes) ETV
attr interpolationmode none
attr source ieee80211Unicast(packetReceivedFromPeer)
attr title "packets received: unicast, vector(packetBytes)"
vector 130 RoutingScenario.node[0].wlan[0].mac.dcf packetDrop:vector(packetBytes) ETV
attr interpolationmode none
attr source packetDropped
attr title "packet drops, vector(packetBytes)"
vector 131 RoutingScenario.node[0].wlan[0].mac.dcf packetDropNotAddressedToUs:vector(packetBytes) ETV
attr interpolationmode none
attr source packetDropReasonIsNotAddressedToUs(packetDropped)
attr title "packet drops: not addressed to us, vector(packetBytes)"
vector 132 RoutingScenario.node[0].wlan[0].mac packetDrop:vector(packetBytes) ETV
attr interpolationmode none
attr source packetDropped
attr title "packet drops, vector(packetBytes)"
vector 133 RoutingScenario.node[0].wlan[0].mac packetDropNotAddressedToUs:vector(packetBytes) ETV
attr interpolationmode none
attr source packetDropReasonIsNotAddressedToUs(packetDropped)
attr title "packet drops: not addressed to us, vector(packetBytes)"
vector 134 RoutingScenario.node[3].udp packetReceived:vector(packetBytes) ETV
attr interpolationmode none
attr source packetReceived
attr title "packets received, vector(packetBytes)"
vector 135 RoutingScenario.node[3].udp passedUpPk:vector(count) ETV
attr interpolationmode none
attr source packetSentToUpper
attr title "packets passed up, vector(count)"
vector 136 RoutingScenario.node[3].wlan[0].mac.dcf packetDrop:vector(packetBytes) ETV
attr interpolationmode none
attr source packetDropped
attr title "packet drops, vector(packetBytes)"
vector 137 RoutingScenario.node[3].wlan[0].mac.dcf packetDropNotAddressedToUs:vector(packetBytes) ETV
attr interpolationmode none
attr source packetDropReasonIsNotAddressedToUs(packetDropped)
attr title "packet drops: not addressed to us, vector(packetBytes)"
vector 138 RoutingScenario.node[3].wlan[0].mac packetDrop:vector(packetBytes) ETV
attr interpolationmode none
attr source packetDropped
attr title "packet drops, vector(packetBytes)"
vector 139 RoutingScenario.node[3].wlan[0].mac packetDropNotAddressedToUs:vector(packetBytes) ETV
attr interpolationmode none
attr source packetDropReasonIsNotAddressedToUs(packetDropped)
attr title "packet drops: not addressed to us, vector(packetBytes)"
vector 140 RoutingScenario.node[2].wlan[0].mac packetDrop:vector(packetBytes) ETV
attr interpolationmode none
attr source packetDropped
attr title "packet drops, vector(packetBytes)"
vector 141 RoutingScenario.node[2].wlan[0].mac packetDropIncorrectlyReceived:vector(packetBytes) ETV
attr interpolationmode none
attr source packetDropReasonIsIncorrectlyReceived(packetDropped)
attr title "packet drops: incorrectly received, vector(packetBytes)"
vector 142 RoutingScenario.node[3].wlan[0].mac.dcf packetSentToPeerWithRetry:vector(packetBytes) ETV
attr interpolationmode none
attr source ieee80211Retry(packetSentToPeer)
attr title "packets sent: with retry, vector(packetBytes)"
vector 143 RoutingScenario.node[2].wlan[0].mac.dcf packetReceivedFromPeerWithRetry:vector(packetBytes) ETV
attr interpolationmode none
attr source ieee80211Retry(packetReceivedFromPeer)
attr title "packets received: with retry, vector(packetBytes)"
vector 144 RoutingScenario.node[0].wlan[0].mac.dcf packetSentToPeerWithRetry:vector(packetBytes) ETV
attr interpolationmode none
attr source ieee80211Retry(packetSentToPeer)
attr title "packets sent: with retry, vector(packetBytes)"
vector 145 RoutingScenario.node[0].wlan[0].mac.dcf packetDropRetryLimitReached:vector(packetBytes) ETV
attr interpolationmode none
attr source packetDropReasonIsRetryLimitReached(packetDropped)
attr title "packet drops: retry limit reached, vector(packetBytes)"
vector 146 RoutingScenario.node[0].wlan[0].mac packetDropRetryLimitReached:vector(packetBytes) ETV
attr interpolationmode none
attr source packetDropReasonIsRetryLimitReached(packetDropped)
attr title "packet drops: retry limit reached, vector(packetBytes)"
vector 147 RoutingScenario.node[0].wlan[0].mac packetDropIncorrectlyReceived:vector(packetBytes) ETV
attr interpolationmode none
attr source packetDropReasonIsIncorrectlyReceived(packetDropped)
attr title "packet drops: incorrectly received, vector(packetBytes)"
vector 148 RoutingScenario.node[2].wlan[0].mac.dcf.recipientMacDataService packetDropDuplicateDetected:vector(packetBytes) ETV
attr interpolationmode none
attr source packetDropReasonIsDuplicateDetected(packetDropped)
attr title "packet drops: duplicate detected, vector(packetBytes)"
vector 149 RoutingScenario.node[2].wlan[0].mac.dcf packetDrop:vector(packetBytes) ETV
attr interpolationmode none
attr source packetDropped
attr title "packet drops, vector(packetBytes)"
vector 150 RoutingScenario.node[2].wlan[0].mac packetDropDuplicateDetected:vector(packetBytes) ETV
attr interpolationmode none
attr source packetDropReasonIsDuplicateDetected(packetDropped)
attr title "packet drops: duplicate detected, vector(packetBytes)"
0	2	0.1	0
0	2	0.1	0
0	2	0.1	2
0	1365	2.101188168813	3
0	1370	2.101276168813	2
0	1394	2.101560194383	3
0	1400	2.101616194383	2
0	1406	2.101713194383	3
0	1411	2.101809194383	2
0	1450	2.102819219953	3
0	1456	2.102875219953	2
0	1462	2.102946219953	3
0	1467	2.103050219953	2
0	1512	2.111379579324	3
0	1518	2.111435579324	2
0	1524	2.111519579324	3
0	1531	2.111623579324	2
0	1596	2.122570921587	3
0	1602	2.122626921587	2
0	1608	2.122736921587	3
0	1613	2.122840921587	2
0	1656	2.130704545612	3
0	1662	2.130760545612	2
0	1668	2.130909545612	3
0	1673	2.131013545612	2
0	1720	2.138694655452	3
0	1726	2.138750655452	2
0	1732	2.138860655452	3
0	1737	2.138964655452	2
0	1796	2.146967869906	3
0	1802	2.147023869906	2
0	1808	2.147172869906	3
0	1813	2.147276869906	2
0	1868	2.170760856761	3
0	1874	2.170816856761	2
0	1880	2.170887856761	3
0	1885	2.170991856761	2
0	1932	2.187568965125	3
0	1938	2.187624965125	2
0	1944	2.187721965125	3
0	1949	2.187825965125	2
0	1998	2.191336939902	3
0	2004	2.191392939902	2
0	2010	2.191450939902	3
0	2015	2.191554939902	2
0	2058	2.195580098805	3
0	2070	2.195636098805	2
0	2076	2.195707098805	3
0	2081	2.195811098805	2
0	2124	2.197123061652	3
0	2130	2.197179061652	2
0	2136	2.197432061652	3
0	2141	2.197536061652	2
0	2205	2.207228696545	3
0	2211	2.207284696545	2
0	2217	2.207485696545	3
0	2223	2.207589696545	2
0	2270	2.213588235496	3
0	2276	2.213644235496	2
0	2282	2.213858235496	3
0	2287	2.213962235496	2
0	2334	2.217899762358	3
0	2340	2.217955762358	2
0	2346	2.218052762358	3
0	2351	2.218156762358	2
0	2429	2.249178623986	3
0	2435	2.249234623986	2
0	2441	2.249292623986	3
0	2446	2.249396623986	2
0	2489	2.25264077651	3
0	2495	2.25269677651	2
0	2501	2.25280677651	3
0	2506	2.25291077651	2
0	2569	2.272596365878	3
0	2575	2.272652365878	2
0	2581	2.272866365878	3
0	2586	2.272970365878	2
0	2629	2.273902389966	3
0	2635	2.273958389966	2
0	2641	2.274120389966	3
0	2646	2.274224389966	2
0	2706	2.284570725345	3
0	2712	2.284626725345	2
0	2718	2.284853725345	3
0	2723	2.284957725345	2
0	2775	2.293493723646	3
0	2781	2.293549723646	2
0	2787	2.293750723646	3
0	2792	2.293854723646	2
0	2868	2.31453830059	3
0	2874	2.31459430059	2
0	2880	2.31469130059	3
0	2885	2.31479530059	2
0	2933	2.316895843221	3
0	2939	2.316951843221	2
0	2945	2.317152843221	3
0	2950	2.317256843221	2
0	2988	2.318227869717	3
0	2994	2.318283869717	2
0	3000	2.318341869717	3
0	3005	2.318445869717	2
0	3048	2.322573348463	3
0	3054	2.322629348463	2
0	3060	2.322804348463	3
0	3065	2.322908348463	2
0	3148	2.353682731768	3
0	3154	2.353738731768	2
0	3160	2.353952731768	3
0	3171	2.354056731768	2
0	3214	2.355978284319	3
0	3220	2.356034284319	2
0	3226	2.356144284319	3
0	3231	2.356248284319	2
0	3284	2.365733064653	3
0	3290	2.365789064653	2
0	3297	2.366016064653	3
0	3303	2.366120064653	2
0	3363	2.375031173207	3
0	3369	2.375087173207	2
0	3378	2.375314173207	3
0	3383	2.375418173207	2
0	3430	2.376694215064	3
0	3436	2.376750215064	2
0	3442	2.376925215064	3
0	3452	2.377029215064	2
0	3490	2.37809124156	3
0	3496	2.37814724156	2
0	3502	2.37828324156	3
0	3507	2.37838724156	2
0	3581	2.402893255494	3
0	3587	2.402949255494	2
0	3593	2.403176255494	3
0	3598	2.403280255494	2
0	3659	2.418008949541	3
0	3665	2.418064949541	2
0	3687	2.418986978467	3
0	3693	2.419042978467	2
0	3699	2.419204978467	3
0	3704	2.419308978467	2
0	3726	2.419626007393	3
0	3731	2.419730007393	2
0	3809	2.456505782499	3
0	3815	2.456561782499	2
0	3821	2.456645782499	3
0	3826	2.456749782499	2
0	3875	2.458564246027	3
0	3881	2.458620246027	2
0	3887	2.458847246027	3
0	3892	2.458951246027	2
0	3935	2.460065274953	3
0	3941	2.460121274953	2
0	3947	2.460348274953	3
0	3952	2.460452274953	2
0	4034	2.492882157813	3
0	4040	2.492938157813	2
0	4046	2.492996157813	3
0	4051	2.493100157813	2
0	4104	2.501989736323	3
0	4110	2.502045736323	2
0	4116	2.502168736323	3
0	4121	2.502272736323	2
0	4173	2.503308767687	3
0	4179	2.503364767687	2
0	4185	2.503500767687	3
0	4190	2.503604767687	2
0	4228	2.504614799051	3
0	4234	2.504670799051	2
0	4240	2.504767799051	3
0	4245	2.504871799051	2
0	4288	2.507104120617	3
0	4294	2.507160120617	2
0	4300	2.507374120617	3
0	4305	2.507478120617	2
0	4374	2.515971160856	3
0	4380	2.516027160856	2
0	4386	2.516150160856	3
0	4391	2.516254160856	2
0	4431	2.51726419222	3
0	4437	2.51732019222	2
0	4445	2.51757319222	3
0	4450	2.51767719222	2
0	4496	2.519870561538	3
0	4502	2.519926561538	2
0	4508	2.520088561538	3
0	4513	2.520192561538	2
0	4582	2.52797483198	3
0	4588	2.52803083198	2
0	4594	2.52817983198	3
0	4599	2.52828383198	2
0	4649	2.53242877263	3
0	4655	2.53248477263	2
0	4661	2.53269877263	3
0	4666	2.53280277263	2
0	4709	2.53793710776	3
0	4716	2.53799310776	2
0	4723	2.53812910776	3
0	4728	2.53823310776	2
0	4816	2.557361040557	3
0	4822	2.557417040557	2
0	4828	2.557618040557	3
0	4833	2.557722040557	2
0	4876	2.565623207214	3
0	4882	2.565679207214	2
0	4888	2.565919207214	3
0	4893	2.566023207214	2
0	4959	2.586372642866	3
0	4965	2.586428642866	2
0	4971	2.586525642866	3
0	4976	2.586629642866	2
0	5025	2.592453321433	3
0	5031	2.592509321433	2
0	5037	2.592658321433	3
0	5042	2.592762321433	2
0	5121	2.625683056456	3
0	5127	2.625739056456	2
0	5133	2.625966056456	3
0	5138	2.626070056456	2
0	5187	2.63375165128	3
0	5193	2.63380765128	2
0	5199	2.63395665128	3
0	5204	2.63406065128	2
0	5282	2.663579224292	3
0	5288	2.663635224292	2
0	5294	2.663732224292	3
0	5299	2.663836224292	2
0	5348	2.671991770404	3
0	5354	2.672047770404	2
0	5360	2.672105770404	3
0	5365	2.672209770404	2
0	5415	2.677195748668	3
0	5421	2.677251748668	2
0	5427	2.677439748668	3
0	5432	2.677543748668	2
0	5475	2.679896258594	3
0	5481	2.679952258594	2
0	5487	2.680049258594	3
0	5492	2.680153258594	2
0	5555	2.688694962658	3
0	5561	2.688750962658	2
0	5567	2.688899962658	3
0	5572	2.689003962658	2
0	5642	2.703463590122	3
0	5648	2.703519590122	2
0	5654	2.703642590122	3
0	5659	2.703746590122	2
0	5702	2.704730626448	3
0	5708	2.704786626448	2
0	5735	2.705734662774	3
0	5741	2.705790662774	2
0	5747	2.705861662774	3
0	5752	2.705965662774	2
0	5774	2.7061266991	3
0	5779	2.7062306991	2
0	5866	2.752321566476	3
0	5872	2.752377566476	2
0	5894	2.753312602802	3
0	5900	2.753368602802	2
0	5906	2.753439602802	3
0	5911	2.753543602802	2
0	5933	2.753821639128	3
0	5938	2.753925639128	2
0	5989	2.761090894866	3
0	5995	2.761146894866	2
0	6017	2.762068931192	3
0	6023	2.762124931192	2
0	6029	2.762273931192	3
0	6035	2.762377931192	2
0	6058	2.762525967518	3
0	6063	2.762629967518	2
0	6112	2.766282178426	3
0	6118	2.766338178426	2
0	6124	2.766539178426	3
0	6129	2.766643178426	2
0	6178	2.768497568901	3
0	6184	2.768553568901	2
0	6190	2.768637568901	3
0	6195	2.768741568901	2
0	6252	2.773302147279	3
0	6258	2.773358147279	2
0	6264	2.773416147279	3
0	6269	2.773520147279	2
0	6326	2.779171448206	3
0	6332	2.779227448206	2
0	6338	2.779441448206	3
0	6343	2.779545448206	2
0	6401	2.805975127711	3
0	6407	2.806031127711	2
0	6413	2.806102127711	3
0	6418	2.806206127711	2
0	6464	2.809795843904	3
0	6470	2.809851843904	2
0	6476	2.809987843904	3
0	6481	2.810091843904	2
0	6550	2.82189200639	3
0	6556	2.82194800639	2
0	6562	2.82217500639	3
0	6567	2.82227900639	2
0	6610	2.827269062011	3
0	6616	2.827325062011	2
0	6622	2.827448062011	3
0	6627	2.827552062011	2
0	6670	2.829270611108	3
0	6676	2.829326611108	2
0	6682	2.829397611108	3
0	6687	2.829501611108	2
0	6760	2.857666094274	3
0	6766	2.857722094274	2
0	6772	2.857936094274	3
0	6777	2.858040094274	2
0	6839	2.873120777143	3
0	6845	2.873176777143	2
0	6851	2.873299777143	3
0	6856	2.873403777143	2
0	6916	2.902672509689	3
0	6922	2.902728509689	2
0	6928	2.902786509689	3
0	6933	2.902890509689	2
0	6989	2.915222413202	3
0	6995	2.915278413202	2
0	7001	2.915427413202	3
0	7006	2.915531413202	2
0	7083	2.971939155564	3
0	7089	2.971995155564	2
0	7095	2.972144155564	3
0	7100	2.972248155564	2
0	7143	2.9767145363	3
0	7149	2.9767705363	2
0	7155	2.9768285363	3
0	7160	2.9769325363	2
0	7207	2.986154733686	3
0	7213	2.986210733686	2
0	7225	2.986424733686	3
0	7230	2.986528733686	2
0	7291	2.991878706697	3
0	7297	2.991934706697	2
0	7324	2.992882748233	3
0	7330	2.992938748233	2
0	7352	2.993847789769	3
0	7358	2.993903789769	2
0	7364	2.993974789769	3
0	7369	2.994078789769	2
0	7394	2.994382831305	3
0	7399	2.994486831305	2
0	7421	2.994816872841	3
0	7426	2.994920872841	2
0	7473	2.99876076757	3
0	7479	2.99881676757	2
0	7485	2.99888776757	3
0	7490	2.99899176757	2
0	7571	3.009173830607	3
0	7577	3.009229830607	2
0	7583	3.009313830607	3
0	7588	3.009417830607	2
0	7644	3.02096068882	3
0	7650	3.02101668882	2
0	7656	3.02121768882	3
0	7661	3.02132168882	2
0	7704	3.027793922186	3
0	7710	3.027849922186	2
0	7716	3.028089922186	3
0	7721	3.028193922186	2
0	7768	3.035518619856	3
0	7774	3.035574619856	2
0	7780	3.035645619856	3
0	7785	3.035749619856	2
0	7841	3.042364691713	3
0	7847	3.042420691713	2
0	7853	3.042543691713	3
0	7858	3.042647691713	2
0	7905	3.047002621898	3
0	7911	3.047058621898	2
0	7917	3.047259621898	3
0	7922	3.047363621898	2
0	7988	3.057917470356	3
0	7994	3.057973470356	2
0	8000	3.058096470356	3
0	8005	3.058200470356	2
0	8048	3.062080616954	3
0	8054	3.062136616954	2
0	8060	3.062298616954	3
0	8065	3.062402616954	2
0	8131	3.093276695898	3
0	8137	3.093332695898	2
0	8143	3.093546695898	3
0	8148	3.093650695898	2
0	8354	3.104880445516	3
0	8362	3.104936445516	2
0	8374	3.105059445516	3
0	8384	3.105163445516	2
0	8455	3.107992002222	3
0	8463	3.108048002222	2
0	8544	3.11633447094	3
0	8552	3.11639047094	2
0	8593	3.124886274012	3
0	8601	3.124942274012	2
0	8608	3.125117274012	3
0	8614	3.125221274012	2
0	8684	3.139264090666	3
0	8692	3.139320090666	2
0	8699	3.139443090666	3
0	8705	3.139547090666	2
0	8761	3.146057645286	3
0	8769	3.146113645286	2
0	8776	3.146314645286	3
0	8782	3.146418645286	2
0	8832	3.147555162393	3
0	8840	3.147611162393	2
0	8847	3.147760162393	3
0	8853	3.147864162393	2
0	8916	3.158245408016	3
0	8924	3.158301408016	2
0	8931	3.158554408016	3
0	8937	3.158658408016	2
0	9016	3.161139252676	3
0	9024	3.161195252676	2
0	9078	3.180863783386	3
0	9086	3.180919783386	2
0	9093	3.181042783386	3
0	9099	3.181146783386	2
0	9184	3.204635248347	3
0	9192	3.204691248347	2
0	9199	3.204775248347	3
0	9205	3.204879248347	2
0	9255	3.206112573806	3
0	9263	3.206168573806	2
0	9270	3.206369573806	3
0	9276	3.206473573806	2
0	9361	3.210442462669	3
0	9369	3.210498462669	2
0	9468	3.233713877676	3
0	9476	3.233769877676	2
0	9551	3.245894619933	3
0	9559	3.245950619933	2
0	9620	3.247978170785	3
0	9628	3.248034170785	2
0	9671	3.253034263042	3
0	9679	3.253090263042	2
0	9686	3.253239263042	3
0	9692	3.253343263042	2
0	9809	3.259533751949	3
0	9817	3.259589751949	2
0	9846	3.260472801671	3
0	9859	3.260528801671	2
0	9866	3.260638801671	3
0	9872	3.260742801671	2
0	9917	3.261713851393	3
0	9925	3.261769851393	2
0	9932	3.261840851393	3
0	9938	3.261944851393	2
0	9984	3.263006901115	3
0	9992	3.263062901115	2
0	10000	3.263159901115	3
0	10006	3.263263901115	2
0	10053	3.264325950837	3
0	10061	3.264381950837	2
0	10068	3.264569950837	3
0	10074	3.264673950837	2
0	10143	3.270476649665	3
0	10152	3.270532649665	2
0	10159	3.270707649665	3
0	10166	3.270811649665	2
0	10220	3.271795699387	3
0	10228	3.271851699387	2
0	10237	3.272091699387	3
0	10243	3.272195699387	2
0	10331	3.274222299961	3
0	10339	3.274278299961	2
0	10409	3.276305850813	3
0	10417	3.276361850813	2
0	10514	3.279223952517	3
0	10522	3.279279952517	2
0	10546	3.280189002239	3
0	10554	3.280245002239	2
0	10624	3.283901926691	3
0	10632	3.283957926691	2
0	10679	3.288379701278	3
0	10687	3.288435701278	2
0	10694	3.288506701278	3
0	10700	3.288610701278	2
0	10783	3.291242636861	3
0	10791	3.291298636861	2
0	10834	3.295188118714	3
0	10842	3.295244118714	2
0	10849	3.295315118714	3
0	10855	3.295419118714	2
0	10905	3.296494168436	3
0	10913	3.296550168436	2
0	10920	3.296699168436	3
0	10926	3.296803168436	2
0	10971	3.297787218158	3
0	10979	3.297843218158	2
0	10986	3.298031218158	3
0	10992	3.298135218158	2
0	11103	3.309376149119	3
0	11111	3.309432149119	2
0	11137	3.310289201721	3
0	11145	3.310345201721	2
0	11152	3.310559201721	3
0	11158	3.310663201721	2
0	11214	3.31563024373	3
0	11222	3.31568624373	2
0	11229	3.31578324373	3
0	11235	3.31588724373	2
0	11293	3.319258181387	3
0	11301	3.319314181387	2
0	11310	3.319450181387	3
0	11316	3.319554181387	2
0	11430	3.326452721307	3
0	11438	3.326508721307	2
0	11475	3.328175809239	3
0	11483	3.328231809239	2
0	11490	3.328289809239	3
0	11496	3.328393809239	2
0	11583	3.337983557468	3
0	11591	3.338039557468	2
0	11626	3.343435129267	3
0	11634	3.343491129267	2
0	11641	3.343666129267	3
0	11647	3.343770129267	2
0	11726	3.346498990373	3
0	11734	3.346554990373	2
0	11775	3.353003910977	3
0	11783	3.353059910977	2
0	11790	3.353221910977	3
0	11796	3.353325910977	2
0	11879	3.355365514283	3
0	11888	3.355421514283	2
0	11951	3.35867587364	3
0	11959	3.35873187364	2
0	12023	3.37818973212	3
0	12031	3.37824573212	2
0	12038	3.37847273212	3
0	12044	3.37857673212	2
0	12123	3.382125894347	3
0	12131	3.382181894347	2
0	12230	3.422858786578	3
0	12238	3.422914786578	2
0	12251	3.427037516781	3
0	12257	3.427141516781	2
0	12335	3.427433572321	3
0	12343	3.427489572321	2
0	12350	3.427625572321	3
0	12356	3.427729572321	2
0	12381	3.427942627861	3
0	12387	3.428046627861	2
0	12445	3.428470683401	3
0	12451	3.428574683401	2
0	12476	3.428722738941	3
0	12482	3.428826738941	2
0	12552	3.429354794481	3
0	12558	3.429458794481	2
0	12566	3.429929794481	3
0	12572	3.430033794481	2
0	12661	3.431190895597	3
0	12672	3.431294895597	2
0	12680	3.431570895597	3
0	12686	3.431674895597	2
0	12716	3.432704895597	3
0	12722	3.432808895597	2
0	12740	3.434176895597	3
0	12753	3.434280895597	2
0	12793	3.435966109586	3
0	12801	3.436022109586	2
0	12890	3.439270210702	3
0	12903	3.439374210702	2
0	12918	3.439637210702	3
0	12924	3.439741210702	2
0	12945	3.440095210702	3
0	12953	3.440199210702	2
0	13004	3.441170266242	3
0	13012	3.441226266242	2
0	13019	3.441310266242	3
0	13025	3.441414266242	2
0	13057	3.441757321782	3
0	13064	3.441861321782	2
0	13103	3.4431398168	3
0	13111	3.4431958168	2
0	13191	3.444043422898	3
0	13197	3.444147422898	2
0	13223	3.445242422898	3
0	13229	3.445346422898	2
0	13250	3.445494478438	3
0	13256	3.445598478438	2
0	13316	3.446048533978	3
0	13322	3.446152533978	2
0	13354	3.446430589518	3
0	13365	3.446534589518	2
0	13373	3.446680589518	3
0	13379	3.446784589518	2
0	13387	3.447151589518	3
0	13401	3.447255589518	2
0	13461	3.448601195616	3
0	13469	3.448657195616	2
0	13492	3.450093195616	3
0	13498	3.450197195616	2
0	13546	3.451899746174	3
0	13554	3.451955746174	2
0	13568	3.452793746174	3
0	13574	3.452897746174	2
1	2	0.1	3
2	2	0.1	1
2	1348	2.100909168813	3
2	1352	2.101013168813	1
2	1365	2.101188168813	0
2	1370	2.101276168813	1
2	1382	2.101440194383	3
2	1386	2.101528194383	1
2	1394	2.101560194383	0
2	1400	2.101616194383	1
2	1406	2.101713194383	0
2	1411	2.101809194383	1
2	1424	2.101843219953	3
2	1429	2.101899219953	1
2	1436	2.102035219953	3
2	1440	2.102787219953	1
2	1450	2.102819219953	0
2	1456	2.102875219953	1
2	1462	2.102946219953	0
2	1467	2.103050219953	1
2	1479	2.103084245523	3
2	1484	2.103140245523	1
2	1496	2.110595579324	3
2	1502	2.111347579324	1
2	1512	2.111379579324	0
2	1518	2.111435579324	1
2	1524	2.111519579324	0
2	1531	2.111623579324	1
2	1543	2.111657604894	3
2	1548	2.111713604894	1
2	1582	2.121786921587	3
2	1586	2.122538921587	1
2	1596	2.122570921587	0
2	1602	2.122626921587	1
2	1608	2.122736921587	0
2	1613	2.122840921587	1
2	1625	2.122874947157	3
2	1630	2.122930947157	1
2	1642	2.129920545612	3
2	1646	2.130672545612	1
2	1656	2.130704545612	0
2	1662	2.130760545612	1
2	1668	2.130909545612	0
2	1673	2.131013545612	1
2	1685	2.131047571182	3
2	1690	2.131103571182	1
2	1706	2.137910655452	3
2	1710	2.138662655452	1
2	1720	2.138694655452	0
2	1726	2.138750655452	1
2	1732	2.138860655452	0
2	1737	2.138964655452	1
2	1749	2.138998681022	3
2	1754	2.139054681022	1
2	1782	2.146183869906	3
2	1786	2.146935869906	1
2	1796	2.146967869906	0
2	1802	2.147023869906	1
2	1808	2.147172869906	0
2	1813	2.147276869906	1
2	1825	2.147310895476	3
2	1830	2.147366895476	1
2	1854	2.169976856761	3
2	1858	2.170728856761	1
2	1868	2.170760856761	0
2	1874	2.170816856761	1
2	1880	2.170887856761	0
2	1885	2.170991856761	1
2	1897	2.171025882331	3
2	1902	2.171081882331	1
2	1918	2.186784965125	3
2	1922	2.187536965125	1
2	1932	2.187568965125	0
2	1938	2.187624965125	1
2	1944	2.187721965125	0
2	1949	2.187825965125	1
2	1961	2.187859990695	3
2	1966	2.187915990695	1
2	1984	2.190552939902	3
2	1988	2.191304939902	1
2	1998	2.191336939902	0
2	2004	2.191392939902	1
2	2010	2.191450939902	0
2	2015	2.191554939902	1
2	2027	2.191588965472	3
2	2032	2.191644965472	1
2	2044	2.194796098805	3
2	2048	2.195548098805	1
2	2058	2.195580098805	0
2	2070	2.195636098805	1
2	2076	2.195707098805	0
2	2081	2.195811098805	1
2	2093	2.195845124375	3
2	2098	2.195901124375	1
2	2110	2.196339061652	3
2	2114	2.197091061652	1
2	2124	2.197123061652	0
2	2130	2.197179061652	1
2	2136	2.197432061652	0
2	2141	2.197536061652	1
2	2154	2.197570087222	3
2	2159	2.197626087222	1
2	2189	2.206444696545	3
2	2195	2.207196696545	1
2	2205	2.207228696545	0
2	2211	2.207284696545	1
2	2217	2.207485696545	0
2	2223	2.207589696545	1
2	2235	2.207623720633	3
2	2241	2.207679720633	1
2	2256	2.212804235496	3
2	2260	2.213556235496	1
2	2270	2.213588235496	0
2	2276	2.213644235496	1
2	2282	2.213858235496	0
2	2287	2.213962235496	1
2	2299	2.213996259584	3
2	2304	2.214052259584	1
2	2316	2.217115762358	3
2	2324	2.217867762358	1
2	2334	2.217899762358	0
2	2340	2.217955762358	1
2	2346	2.218052762358	0
2	2351	2.218156762358	1
2	2366	2.218190786446	3
2	2371	2.218246786446	1
2	2415	2.248394623986	3
2	2419	2.249146623986	1
2	2429	2.249178623986	0
2	2435	2.249234623986	1
2	2441	2.249292623986	0
2	2446	2.249396623986	1
2	2458	2.249430648074	3
2	2463	2.249486648074	1
2	2475	2.25185677651	3
2	2479	2.25260877651	1
2	2489	2.25264077651	0
2	2495	2.25269677651	1
2	2501	2.25280677651	0
2	2506	2.25291077651	1
2	2518	2.252944800598	3
2	2523	2.253000800598	1
2	2555	2.271812365878	3
2	2559	2.272564365878	1
2	2569	2.272596365878	0
2	2575	2.272652365878	1
2	2581	2.272866365878	0
2	2586	2.272970365878	1
2	2598	2.273004389966	3
2	2608	2.273060389966	1
2	2615	2.273118389966	3
2	2619	2.273870389966	1
2	2629	2.273902389966	0
2	2635	2.273958389966	1
2	2641	2.274120389966	0
2	2646	2.274224389966	1
2	2658	2.274258414054	3
2	2663	2.274314414054	1
2	2688	2.283786725345	3
2	2696	2.284538725345	1
2	2706	2.284570725345	0
2	2712	2.284626725345	1
2	2718	2.284853725345	0
2	2723	2.284957725345	1
2	2735	2.284991749433	3
2	2740	2.285047749433	1
2	2761	2.292709723646	3
2	2765	2.293461723646	1
2	2775	2.293493723646	0
2	2781	2.293549723646	1
2	2787	2.293750723646	0
2	2792	2.293854723646	1
2	2804	2.293888747734	3
2	2809	2.293944747734	1
2	2854	2.31375430059	3
2	2858	2.31450630059	1
2	2868	2.31453830059	0
2	2874	2.31459430059	1
2	2880	2.31469130059	0
2	2885	2.31479530059	1
2	2897	2.314829327086	3
2	2902	2.314885327086	1
2	2914	2.316111843221	3
2	2923	2.316863843221	1
2	2933	2.316895843221	0
2	2939	2.316951843221	1
2	2945	2.317152843221	0
2	2950	2.317256843221	1
2	2962	2.317290869717	3
2	2967	2.317346869717	1
2	2974	2.317443869717	3
2	2978	2.318195869717	1
2	2988	2.318227869717	0
2	2994	2.318283869717	1
2	3000	2.318341869717	0
2	3005	2.318445869717	1
2	3017	2.318479896213	3
2	3022	2.318535896213	1
2	3034	2.321789348463	3
2	3038	2.322541348463	1
2	3048	2.322573348463	0
2	3054	2.322629348463	1
2	3060	2.322804348463	0
2	3065	2.322908348463	1
2	3077	2.322942374959	3
2	3082	2.322998374959	1
2	3134	2.352898731768	3
2	3138	2.353650731768	1
2	3148	2.353682731768	0
2	3154	2.353738731768	1
2	3160	2.353952731768	0
2	3171	2.354056731768	1
2	3183	2.354090758264	3
2	3188	2.354146758264	1
2	3200	2.355194284319	3
2	3204	2.355946284319	1
2	3214	2.355978284319	0
2	3220	2.356034284319	1
2	3226	2.356144284319	0
2	3231	2.356248284319	1
2	3243	2.356282310815	3
2	3248	2.356338310815	1
2	3270	2.364949064653	3
2	3274	2.365701064653	1
2	3284	2.365733064653	0
2	3290	2.365789064653	1
2	3297	2.366016064653	0
2	3303	2.366120064653	1
2	3315	2.366154091149	3
2	3320	2.366210091149	1
2	3343	2.374247173207	3
2	3353	2.374999173207	1
2	3363	2.375031173207	0
2	3369	2.375087173207	1
2	3378	2.375314173207	0
2	3383	2.375418173207	1
2	3395	2.375452199703	3
2	3400	2.375508199703	1
2	3414	2.375910215064	3
2	3420	2.376662215064	1
2	3430	2.376694215064	0
2	3436	2.376750215064	1
2	3442	2.376925215064	0
2	3452	2.377029215064	1
2	3464	2.37706324156	3
2	3469	2.37711924156	1
2	3476	2.37730724156	3
2	3480	2.37805924156	1
2	3490	2.37809124156	0
2	3496	2.37814724156	1
2	3502	2.37828324156	0
2	3507	2.37838724156	1
2	3519	2.378421268056	3
2	3524	2.378477268056	1
2	3567	2.402109255494	3
2	3571	2.402861255494	1
2	3581	2.402893255494	0
2	3587	2.402949255494	1
2	3593	2.403176255494	0
2	3598	2.403280255494	1
2	3610	2.40331428442	3
2	3615	2.40337028442	1
2	3640	2.417224949541	3
2	3649	2.417976949541	1
2	3659	2.418008949541	0
2	3665	2.418064949541	1
2	3673	2.418202978467	3
2	3677	2.418954978467	1
2	3687	2.418986978467	0
2	3693	2.419042978467	1
2	3699	2.419204978467	0
2	3704	2.419308978467	1
2	3716	2.419343007393	3
2	3721	2.419399007393	1
2	3726	2.419626007393	0
2	3731	2.419730007393	1
2	3743	2.419764036319	3
2	3748	2.419820036319	1
2	3795	2.455721782499	3
2	3799	2.456473782499	1
2	3809	2.456505782499	0
2	3815	2.456561782499	1
2	3821	2.456645782499	0
2	3826	2.456749782499	1
2	3841	2.456783811425	3
2	3846	2.456839811425	1
2	3858	2.457780246027	3
2	3865	2.458532246027	1
2	3875	2.458564246027	0
2	3881	2.458620246027	1
2	3887	2.458847246027	0
2	3892	2.458951246027	1
2	3909	2.458985274953	3
2	3914	2.459041274953	1
2	3921	2.459281274953	3
2	3925	2.460033274953	1
2	3935	2.460065274953	0
2	3941	2.460121274953	1
2	3947	2.460348274953	0
2	3952	2.460452274953	1
2	3964	2.460486303879	3
2	3969	2.460542303879	1
2	4017	2.492098157813	3
2	4024	2.492850157813	1
2	4034	2.492882157813	0
2	4040	2.492938157813	1
2	4046	2.492996157813	0
2	4051	2.493100157813	1
2	4063	2.493134186739	3
2	4068	2.493190186739	1
2	4090	2.501205736323	3
2	4094	2.501957736323	1
2	4104	2.501989736323	0
2	4110	2.502045736323	1
2	4116	2.502168736323	0
2	4121	2.502272736323	1
2	4133	2.502306767687	3
2	4138	2.502362767687	1
2	4150	2.502524767687	3
2	4163	2.503276767687	1
2	4173	2.503308767687	0
2	4179	2.503364767687	1
2	4185	2.503500767687	0
2	4190	2.503604767687	1
2	4202	2.503638799051	3
2	4207	2.503694799051	1
2	4214	2.503830799051	3
2	4218	2.504582799051	1
2	4228	2.504614799051	0
2	4234	2.504670799051	1
2	4240	2.504767799051	0
2	4245	2.504871799051	1
2	4257	2.504905830415	3
2	4262	2.504961830415	1
2	4274	2.506320120617	3
2	4278	2.507072120617	1
2	4288	2.507104120617	0
2	4294	2.507160120617	1
2	4300	2.507374120617	0
2	4305	2.507478120617	1
2	4317	2.507512151981	3
2	4322	2.507568151981	1
2	4355	2.515187160856	3
2	4364	2.515939160856	1
2	4374	2.515971160856	0
2	4380	2.516027160856	1
2	4386	2.516150160856	0
2	4391	2.516254160856	1
2	4403	2.51628819222	3
2	4408	2.51634419222	1
2	4415	2.51648019222	3
2	4421	2.51723219222	1
2	4431	2.51726419222	0
2	4437	2.51732019222	1
2	4445	2.51757319222	0
2	4450	2.51767719222	1
2	4462	2.517711223584	3
2	4467	2.517767223584	1
2	4479	2.519086561538	3
2	4486	2.519838561538	1
2	4496	2.519870561538	0
2	4502	2.519926561538	1
2	4508	2.520088561538	0
2	4513	2.520192561538	1
2	4525	2.520226592902	3
2	4530	2.520282592902	1
2	4558	2.52719083198	3
2	4572	2.52794283198	1
2	4582	2.52797483198	0
2	4588	2.52803083198	1
2	4594	2.52817983198	0
2	4599	2.52828383198	1
2	4611	2.528317863344	3
2	4616	2.528373863344	1
2	4635	2.53164477263	3
2	4639	2.53239677263	1
2	4649	2.53242877263	0
2	4655	2.53248477263	1
2	4661	2.53269877263	0
2	4666	2.53280277263	1
2	4678	2.532836803994	3
2	4683	2.532892803994	1
2	4695	2.53715310776	3
2	4699	2.53790510776	1
2	4709	2.53793710776	0
2	4716	2.53799310776	1
2	4723	2.53812910776	0
2	4728	2.53823310776	1
2	4740	2.538267139124	3
2	4746	2.538323139124	1
2	4802	2.556577040557	3
2	4806	2.557329040557	1
2	4816	2.557361040557	0
2	4822	2.557417040557	1
2	4828	2.557618040557	0
2	4833	2.557722040557	1
2	4845	2.557756071921	3
2	4850	2.557812071921	1
2	4862	2.564839207214	3
2	4866	2.565591207214	1
2	4876	2.565623207214	0
2	4882	2.565679207214	1
2	4888	2.565919207214	0
2	4893	2.566023207214	1
2	4905	2.566057238578	3
2	4910	2.566113238578	1
2	4945	2.585588642866	3
2	4949	2.586340642866	1
2	4959	2.586372642866	0
2	4965	2.586428642866	1
2	4971	2.586525642866	0
2	4976	2.586629642866	1
2	4988	2.58666367423	3
2	4993	2.58671967423	1
2	5011	2.591669321433	3
2	5015	2.592421321433	1
2	5025	2.592453321433	0
2	5031	2.592509321433	1
2	5037	2.592658321433	0
2	5042	2.592762321433	1
2	5054	2.592796352797	3
2	5059	2.592852352797	1
2	5107	2.624899056456	3
2	5111	2.625651056456	1
2	5121	2.625683056456	0
2	5127	2.625739056456	1
2	5133	2.625966056456	0
2	5138	2.626070056456	1
2	5150	2.626104090278	3
2	5155	2.626160090278	1
2	5173	2.63296765128	3
2	5177	2.63371965128	1
2	5187	2.63375165128	0
2	5193	2.63380765128	1
2	5199	2.63395665128	0
2	5204	2.63406065128	1
2	5216	2.634094685102	3
2	5221	2.634150685102	1
2	5268	2.662795224292	3
2	5272	2.663547224292	1
2	5282	2.663579224292	0
2	5288	2.663635224292	1
2	5294	2.663732224292	0
2	5299	2.663836224292	1
2	5311	2.663870258114	3
2	5316	2.663926258114	1
2	5334	2.671207770404	3
2	5338	2.671959770404	1
2	5348	2.671991770404	0
2	5354	2.672047770404	1
2	5360	2.672105770404	0
2	5365	2.672209770404	1
2	5377	2.672243804226	3
2	5382	2.672299804226	1
2	5401	2.676411748668	3
2	5405	2.677163748668	1
2	5415	2.677195748668	0
2	5421	2.677251748668	1
2	5427	2.677439748668	0
2	5432	2.677543748668	1
2	5444	2.67757778249	3
2	5449	2.67763378249	1
2	5461	2.679112258594	3
2	5465	2.679864258594	1
2	5475	2.679896258594	0
2	5481	2.679952258594	1
2	5487	2.680049258594	0
2	5492	2.680153258594	1
2	5504	2.680187292416	3
2	5509	2.680243292416	1
2	5538	2.687910962658	3
2	5545	2.688662962658	1
2	5555	2.688694962658	0
2	5561	2.688750962658	1
2	5567	2.688899962658	0
2	5572	2.689003962658	1
2	5587	2.68903799648	3
2	5592	2.68909399648	1
2	5628	2.702679590122	3
2	5632	2.703431590122	1
2	5642	2.703463590122	0
2	5648	2.703519590122	1
2	5654	2.703642590122	0
2	5659	2.703746590122	1
2	5671	2.703780626448	3
2	5676	2.703836626448	1
2	5688	2.703946626448	3
2	5692	2.704698626448	1
2	5702	2.704730626448	0
2	5708	2.704786626448	1
2	5721	2.704950662774	3
2	5725	2.705702662774	1
2	5735	2.705734662774	0
2	5741	2.705790662774	1
2	5747	2.705861662774	0
2	5752	2.705965662774	1
2	5764	2.7059996991	3
2	5769	2.7060556991	1
2	5774	2.7061266991	0
2	5779	2.7062306991	1
2	5791	2.706264735426	3
2	5796	2.706320735426	1
2	5847	2.751537566476	3
2	5856	2.752289566476	1
2	5866	2.752321566476	0
2	5872	2.752377566476	1
2	5880	2.752528602802	3
2	5884	2.753280602802	1
2	5894	2.753312602802	0
2	5900	2.753368602802	1
2	5906	2.753439602802	0
2	5911	2.753543602802	1
2	5923	2.753577639128	3
2	5928	2.753633639128	1
2	5933	2.753821639128	0
2	5938	2.753925639128	1
2	5950	2.753959675454	3
2	5955	2.754015675454	1
2	5970	2.760306894866	3
2	5979	2.761058894866	1
2	5989	2.761090894866	0
2	5995	2.761146894866	1
2	6003	2.761284931192	3
2	6007	2.762036931192	1
2	6017	2.762068931192	0
2	6023	2.762124931192	1
2	6029	2.762273931192	0
2	6035	2.762377931192	1
2	6048	2.762411967518	3
2	6053	2.762467967518	1
2	6058	2.762525967518	0
2	6063	2.762629967518	1
2	6075	2.762664003844	3
2	6080	2.762720003844	1
2	6098	2.765498178426	3
2	6102	2.766250178426	1
2	6112	2.766282178426	0
2	6118	2.766338178426	1
2	6124	2.766539178426	0
2	6129	2.766643178426	1
2	6141	2.766677214752	3
2	6146	2.766733214752	1
2	6158	2.767713568901	3
2	6168	2.768465568901	1
2	6178	2.768497568901	0
2	6184	2.768553568901	1
2	6190	2.768637568901	0
2	6195	2.768741568901	1
2	6207	2.768775605227	3
2	6212	2.768831605227	1
2	6236	2.772518147279	3
2	6242	2.773270147279	1
2	6252	2.773302147279	0
2	6258	2.773358147279	1
2	6264	2.773416147279	0
2	6269	2.773520147279	1
2	6281	2.773554183605	3
2	6286	2.773610183605	1
2	6308	2.778387448206	3
2	6316	2.779139448206	1
2	6326	2.779171448206	0
2	6332	2.779227448206	1
2	6338	2.779441448206	0
2	6343	2.779545448206	1
2	6355	2.779579484532	3
2	6360	2.779635484532	1
2	6387	2.805191127711	3
2	6391	2.805943127711	1
2	6401	2.805975127711	0
2	6407	2.806031127711	1
2	6413	2.806102127711	0
2	6418	2.806206127711	1
2	6430	2.806240166621	3
2	6435	2.806296166621	1
2	6450	2.809011843904	3
2	6454	2.809763843904	1
2	6464	2.809795843904	0
2	6470	2.809851843904	1
2	6476	2.809987843904	0
2	6481	2.810091843904	1
2	6493	2.810125882814	3
2	6498	2.810181882814	1
2	6536	2.82110800639	3
2	6540	2.82186000639	1
2	6550	2.82189200639	0
2	6556	2.82194800639	1
2	6562	2.82217500639	0
2	6567	2.82227900639	1
2	6579	2.8223130453	3
2	6584	2.8223690453	1
2	6596	2.826485062011	3
2	6600	2.827237062011	1
2	6610	2.827269062011	0
2	6616	2.827325062011	1
2	6622	2.827448062011	0
2	6627	2.827552062011	1
2	6639	2.827586100921	3
2	6644	2.827642100921	1
2	6656	2.828486611108	3
2	6660	2.829238611108	1
2	6670	2.829270611108	0
2	6676	2.829326611108	1
2	6682	2.829397611108	0
2	6687	2.829501611108	1
2	6699	2.829535650018	3
2	6704	2.829591650018	1
2	6746	2.856882094274	3
2	6750	2.857634094274	1
2	6760	2.857666094274	0
2	6766	2.857722094274	1
2	6772	2.857936094274	0
2	6777	2.858040094274	1
2	6789	2.858074133184	3
2	6794	2.858130133184	1
2	6825	2.872336777143	3
2	6829	2.873088777143	1
2	6839	2.873120777143	0
2	6845	2.873176777143	1
2	6851	2.873299777143	0
2	6856	2.873403777143	1
2	6868	2.873437816053	3
2	6873	2.873493816053	1
2	6902	2.901888509689	3
2	6906	2.902640509689	1
2	6916	2.902672509689	0
2	6922	2.902728509689	1
2	6928	2.902786509689	0
2	6933	2.902890509689	1
2	6945	2.902924551225	3
2	6950	2.902980551225	1
2	6975	2.914438413202	3
2	6979	2.915190413202	1
2	6989	2.915222413202	0
2	6995	2.915278413202	1
2	7001	2.915427413202	0
2	7006	2.915531413202	1
2	7018	2.915565454738	3
2	7023	2.915621454738	1
2	7069	2.971155155564	3
2	7073	2.971907155564	1
2	7083	2.971939155564	0
2	7089	2.971995155564	1
2	7095	2.972144155564	0
2	7100	2.972248155564	1
2	7112	2.9722821971	3
2	7117	2.9723381971	1
2	7129	2.9759305363	3
2	7133	2.9766825363	1
2	7143	2.9767145363	0
2	7149	2.9767705363	1
2	7155	2.9768285363	0
2	7160	2.9769325363	1
2	7172	2.976966577836	3
2	7177	2.977022577836	1
2	7193	2.985370733686	3
2	7197	2.986122733686	1
2	7207	2.986154733686	0
2	7213	2.986210733686	1
2	7225	2.986424733686	0
2	7230	2.986528733686	1
2	7242	2.986562775222	3
2	7247	2.986618775222	1
2	7272	2.991094706697	3
2	7281	2.991846706697	1
2	7291	2.991878706697	0
2	7297	2.991934706697	1
2	7310	2.992098748233	3
2	7314	2.992850748233	1
2	7324	2.992882748233	0
2	7330	2.992938748233	1
2	7338	2.993063789769	3
2	7342	2.993815789769	1
2	7352	2.993847789769	0
2	7358	2.993903789769	1
2	7364	2.993974789769	0
2	7369	2.994078789769	1
2	7381	2.994112831305	3
2	7389	2.994168831305	1
2	7394	2.994382831305	0
2	7399	2.994486831305	1
2	7411	2.994520872841	3
2	7416	2.994576872841	1
2	7421	2.994816872841	0
2	7426	2.994920872841	1
2	7438	2.994954914377	3
2	7443	2.995010914377	1
2	7459	2.99797676757	3
2	7463	2.99872876757	1
2	7473	2.99876076757	0
2	7479	2.99881676757	1
2	7485	2.99888776757	0
2	7490	2.99899176757	1
2	7502	2.999025809106	3
2	7507	2.999081809106	1
2	7553	3.008389830607	3
2	7561	3.009141830607	1
2	7571	3.009173830607	0
2	7577	3.009229830607	1
2	7583	3.009313830607	0
2	7588	3.009417830607	1
2	7600	3.009451874787	3
2	7605	3.009507874787	1
2	7630	3.02017668882	3
2	7634	3.02092868882	1
2	7644	3.02096068882	0
2	7650	3.02101668882	1
2	7656	3.02121768882	0
2	7661	3.02132168882	1
2	7673	3.021355733	3
2	7678	3.021411733	1
2	7690	3.027009922186	3
2	7694	3.027761922186	1
2	7704	3.027793922186	0
2	7710	3.027849922186	1
2	7716	3.028089922186	0
2	7721	3.028193922186	1
2	7733	3.028227966366	3
2	7738	3.028283966366	1
2	7754	3.034734619856	3
2	7758	3.035486619856	1
2	7768	3.035518619856	0
2	7774	3.035574619856	1
2	7780	3.035645619856	0
2	7785	3.035749619856	1
2	7797	3.035783664036	3
2	7802	3.035839664036	1
2	7827	3.041580691713	3
2	7831	3.042332691713	1
2	7841	3.042364691713	0
2	7847	3.042420691713	1
2	7853	3.042543691713	0
2	7858	3.042647691713	1
2	7870	3.042681735893	3
2	7875	3.042737735893	1
2	7891	3.046218621898	3
2	7895	3.046970621898	1
2	7905	3.047002621898	0
2	7911	3.047058621898	1
2	7917	3.047259621898	0
2	7922	3.047363621898	1
2	7934	3.047397666078	3
2	7939	3.047453666078	1
2	7972	3.057133470356	3
2	7978	3.057885470356	1
2	7988	3.057917470356	0
2	7994	3.057973470356	1
2	8000	3.058096470356	0
2	8005	3.058200470356	1
2	8017	3.058234514536	3
2	8022	3.058290514536	1
2	8034	3.061296616954	3
2	8038	3.062048616954	1
2	8048	3.062080616954	0
2	8054	3.062136616954	1
2	8060	3.062298616954	0
2	8065	3.062402616954	1
2	8077	3.062436661134	3
2	8082	3.062492661134	1
2	8117	3.092492695898	3
2	8121	3.093244695898	1
2	8131	3.093276695898	0
2	8137	3.093332695898	1
2	8143	3.093546695898	0
2	8148	3.093650695898	1
2	8160	3.093684740078	3
2	8165	3.093740740078	1
2	8218	3.102079332104	3
2	8228	3.102167332104	1
2	8254	3.10247688881	3
2	8261	3.10253288881	1
2	8269	3.10277288881	3
2	8283	3.10286888881	1
2	8325	3.103969445516	3
2	8332	3.104025445516	1
2	8340	3.104096445516	3
2	8346	3.104848445516	1
2	8354	3.104880445516	0
2	8362	3.104936445516	1
2	8374	3.105059445516	0
2	8384	3.105163445516	1
2	8426	3.107055002222	3
2	8433	3.107111002222	1
2	8441	3.107208002222	3
2	8447	3.107960002222	1
2	8455	3.107992002222	0
2	8463	3.108048002222	1
2	8514	3.11534547094	3
2	8521	3.11540147094	1
2	8529	3.11555047094	3
2	8536	3.11630247094	1
2	8544	3.11633447094	0
2	8552	3.11639047094	1
2	8577	3.124102274012	3
2	8583	3.124854274012	1
2	8593	3.124886274012	0
2	8601	3.124942274012	1
2	8608	3.125117274012	0
2	8614	3.125221274012	1
2	8628	3.125255320918	3
2	8635	3.125311320918	1
2	8665	3.138480090666	3
2	8674	3.139232090666	1
2	8684	3.139264090666	0
2	8692	3.139320090666	1
2	8699	3.139443090666	0
2	8705	3.139547090666	1
2	8719	3.139581137572	3
2	8726	3.139637137572	1
2	8745	3.145273645286	3
2	8751	3.146025645286	1
2	8761	3.146057645286	0
2	8769	3.146113645286	1
2	8776	3.146314645286	0
2	8782	3.146418645286	1
2	8796	3.146452692192	3
2	8803	3.146508692192	1
2	8816	3.146771162393	3
2	8822	3.147523162393	1
2	8832	3.147555162393	0
2	8840	3.147611162393	1
2	8847	3.147760162393	0
2	8853	3.147864162393	1
2	8867	3.147898209299	3
2	8874	3.147954209299	1
2	8896	3.157461408016	3
2	8906	3.158213408016	1
2	8916	3.158245408016	0
2	8924	3.158301408016	1
2	8931	3.158554408016	0
2	8937	3.158658408016	1
2	8951	3.158692454922	3
2	8958	3.158748454922	1
2	8987	3.160215252676	3
2	8994	3.160271252676	1
2	9002	3.160355252676	3
2	9008	3.161107252676	1
2	9016	3.161139252676	0
2	9024	3.161195252676	1
2	9062	3.180079783386	3
2	9068	3.180831783386	1
2	9078	3.180863783386	0
2	9086	3.180919783386	1
2	9093	3.181042783386	0
2	9099	3.181146783386	1
2	9113	3.181180830292	3
2	9120	3.181236830292	1
2	9168	3.203851248347	3
2	9174	3.204603248347	1
2	9184	3.204635248347	0
2	9192	3.204691248347	1
2	9199	3.204775248347	0
2	9205	3.204879248347	1
2	9219	3.204913298069	3
2	9226	3.204969298069	1
2	9239	3.205328573806	3
2	9245	3.206080573806	1
2	9255	3.206112573806	0
2	9263	3.206168573806	1
2	9270	3.206369573806	0
2	9276	3.206473573806	1
2	9290	3.206507623528	3
2	9297	3.206563623528	1
2	9326	3.209414462669	3
2	9333	3.209470462669	1
2	9341	3.209658462669	3
2	9353	3.210410462669	1
2	9361	3.210442462669	0
2	9369	3.210498462669	1
2	9439	3.232763877676	3
2	9446	3.232819877676	1
2	9454	3.232929877676	3
2	9460	3.233681877676	1
2	9468	3.233713877676	0
2	9476	3.233769877676	1
2	9517	3.244996619933	3
2	9524	3.245052619933	1
2	9537	3.245110619933	3
2	9543	3.245862619933	1
2	9551	3.245894619933	0
2	9559	3.245950619933	1
2	9591	3.246911170785	3
2	9598	3.246967170785	1
2	9606	3.247194170785	3
2	9612	3.247946170785	1
2	9620	3.247978170785	0
2	9628	3.248034170785	1
2	9649	3.252250263042	3
2	9661	3.253002263042	1
2	9671	3.253034263042	0
2	9679	3.253090263042	1
2	9686	3.253239263042	0
2	9692	3.253343263042	1
2	9706	3.253377312764	3
2	9713	3.253433312764	1
2	9773	3.258583751949	3
2	9780	3.258639751949	1
2	9788	3.258749751949	3
2	9799	3.259501751949	1
2	9809	3.259533751949	0
2	9817	3.259589751949	1
2	9827	3.259688801671	3
2	9838	3.260440801671	1
2	9846	3.260472801671	0
2	9859	3.260528801671	1
2	9866	3.260638801671	0
2	9872	3.260742801671	1
2	9886	3.260776851393	3
2	9893	3.260832851393	1
2	9901	3.260929851393	3
2	9907	3.261681851393	1
2	9917	3.261713851393	0
2	9925	3.261769851393	1
2	9932	3.261840851393	0
2	9938	3.261944851393	1
2	9952	3.261978901115	3
2	9959	3.262034901115	1
2	9967	3.262222901115	3
2	9973	3.262974901115	1
2	9984	3.263006901115	0
2	9992	3.263062901115	1
2	10000	3.263159901115	0
2	10006	3.263263901115	1
2	10020	3.263297950837	3
2	10028	3.263353950837	1
2	10037	3.263541950837	3
2	10043	3.264293950837	1
2	10053	3.264325950837	0
2	10061	3.264381950837	1
2	10068	3.264569950837	0
2	10074	3.264673950837	1
2	10088	3.264708000559	3
2	10095	3.264764000559	1
2	10118	3.269692649665	3
2	10133	3.270444649665	1
2	10143	3.270476649665	0
2	10152	3.270532649665	1
2	10159	3.270707649665	0
2	10166	3.270811649665	1
2	10181	3.270845699387	3
2	10188	3.270901699387	1
2	10196	3.271011699387	3
2	10209	3.271763699387	1
2	10220	3.271795699387	0
2	10228	3.271851699387	1
2	10237	3.272091699387	0
2	10243	3.272195699387	1
2	10257	3.272229749109	3
2	10264	3.272285749109	1
2	10296	3.273285299961	3
2	10303	3.273341299961	1
2	10312	3.273438299961	3
2	10323	3.274190299961	1
2	10331	3.274222299961	0
2	10339	3.274278299961	1
2	10374	3.275290850813	3
2	10381	3.275346850813	1
2	10389	3.275521850813	3
2	10401	3.276273850813	1
2	10409	3.276305850813	0
2	10417	3.276361850813	1
2	10448	3.277231401665	3
2	10455	3.277287401665	1
2	10479	3.278273952517	3
2	10486	3.278329952517	1
2	10494	3.278439952517	3
2	10506	3.279191952517	1
2	10514	3.279223952517	0
2	10522	3.279279952517	1
2	10532	3.279405002239	3
2	10538	3.280157002239	1
2	10546	3.280189002239	0
2	10554	3.280245002239	1
2	10593	3.282899926691	3
2	10600	3.282955926691	1
2	10608	3.283117926691	3
2	10616	3.283869926691	1
2	10624	3.283901926691	0
2	10632	3.283957926691	1
2	10658	3.287595701278	3
2	10669	3.288347701278	1
2	10679	3.288379701278	0
2	10687	3.288435701278	1
2	10694	3.288506701278	0
2	10700	3.288610701278	1
2	10714	3.288644751	3
2	10721	3.288700751	1
2	10753	3.290214636861	3
2	10761	3.290270636861	1
2	10769	3.290458636861	3
2	10775	3.291210636861	1
2	10783	3.291242636861	0
2	10791	3.291298636861	1
2	10813	3.294404118714	3
2	10824	3.295156118714	1
2	10834	3.295188118714	0
2	10842	3.295244118714	1
2	10849	3.295315118714	0
2	10855	3.295419118714	1
2	10869	3.295453168436	3
2	10876	3.295509168436	1
2	10884	3.295710168436	3
2	10895	3.296462168436	1
2	10905	3.296494168436	0
2	10913	3.296550168436	1
2	10920	3.296699168436	0
2	10926	3.296803168436	1
2	10940	3.296837218158	3
2	10947	3.296893218158	1
2	10955	3.297003218158	3
2	10961	3.297755218158	1
2	10971	3.297787218158	0
2	10979	3.297843218158	1
2	10986	3.298031218158	0
2	10992	3.298135218158	1
2	11006	3.29816926788	3
2	11013	3.29822526788	1
2	11069	3.308465149119	3
2	11076	3.308521149119	1
2	11084	3.308592149119	3
2	11095	3.309344149119	1
2	11103	3.309376149119	0
2	11111	3.309432149119	1
2	11121	3.309505201721	3
2	11127	3.310257201721	1
2	11137	3.310289201721	0
2	11145	3.310345201721	1
2	11152	3.310559201721	0
2	11158	3.310663201721	1
2	11172	3.310697254323	3
2	11179	3.310753254323	1
2	11192	3.31484624373	3
2	11204	3.31559824373	1
2	11214	3.31563024373	0
2	11222	3.31568624373	1
2	11229	3.31578324373	0
2	11235	3.31588724373	1
2	11249	3.315921296332	3
2	11256	3.315977296332	1
2	11276	3.318474181387	3
2	11283	3.319226181387	1
2	11293	3.319258181387	0
2	11301	3.319314181387	1
2	11310	3.319450181387	0
2	11316	3.319554181387	1
2	11330	3.319588233989	3
2	11337	3.319644233989	1
2	11397	3.325554721307	3
2	11405	3.325610721307	1
2	11413	3.325668721307	3
2	11422	3.326420721307	1
2	11430	3.326452721307	0
2	11438	3.326508721307	1
2	11459	3.327391809239	3
2	11465	3.328143809239	1
2	11475	3.328175809239	0
2	11483	3.328231809239	1
2	11490	3.328289809239	0
2	11496	3.328393809239	1
2	11510	3.328427861841	3
2	11517	3.328483861841	1
2	11554	3.336942557468	3
2	11561	3.336998557468	1
2	11569	3.337199557468	3
2	11575	3.337951557468	1
2	11583	3.337983557468	0
2	11591	3.338039557468	1
2	11610	3.342651129267	3
2	11616	3.343403129267	1
2	11626	3.343435129267	0
2	11634	3.343491129267	1
2	11641	3.343666129267	0
2	11647	3.343770129267	1
2	11661	3.343804181869	3
2	11668	3.343860181869	1
2	11697	3.345444990373	3
2	11704	3.345500990373	1
2	11712	3.345714990373	3
2	11718	3.346466990373	1
2	11726	3.346498990373	0
2	11734	3.346554990373	1
2	11753	3.352219910977	3
2	11765	3.352971910977	1
2	11775	3.353003910977	0
2	11783	3.353059910977	1
2	11790	3.353221910977	0
2	11796	3.353325910977	1
2	11810	3.353359963579	3
2	11818	3.353415963579	1
2	11850	3.354285514283	3
2	11857	3.354341514283	1
2	11865	3.354581514283	3
2	11871	3.355333514283	1
2	11879	3.355365514283	0
2	11888	3.355421514283	1
2	11922	3.35768687364	3
2	11929	3.35774287364	1
2	11937	3.35789187364	3
2	11943	3.35864387364	1
2	11951	3.35867587364	0
2	11959	3.35873187364	1
2	12007	3.37740573212	3
2	12013	3.37815773212	1
2	12023	3.37818973212	0
2	12031	3.37824573212	1
2	12038	3.37847273212	0
2	12044	3.37857673212	1
2	12058	3.378610784722	3
2	12065	3.378666784722	1
2	12094	3.381175894347	3
2	12101	3.381231894347	1
2	12109	3.381341894347	3
2	12115	3.382093894347	1
2	12123	3.382125894347	0
2	12131	3.382181894347	1
2	12198	3.421804786578	3
2	12205	3.421860786578	1
2	12213	3.422074786578	3
2	12222	3.422826786578	1
2	12230	3.422858786578	0
2	12238	3.422914786578	1
2	12251	3.427037516781	0
2	12257	3.427141516781	1
2	12275	3.427305572321	3
2	12281	3.427401572321	1
2	12335	3.427433572321	0
2	12343	3.427489572321	1
2	12350	3.427625572321	0
2	12356	3.427729572321	1
2	12369	3.427763627861	3
2	12376	3.427819627861	1
2	12381	3.427942627861	0
2	12387	3.428046627861	1
2	12400	3.428080683401	3
2	12407	3.428136683401	1
2	12415	3.428207683401	3
2	12426	3.428311683401	1
2	12445	3.428470683401	0
2	12451	3.428574683401	1
2	12464	3.428608738941	3
2	12471	3.428664738941	1
2	12476	3.428722738941	0
2	12482	3.428826738941	1
2	12495	3.428860794481	3
2	12502	3.428916794481	1
2	12510	3.429026794481	3
2	12521	3.429130794481	1
2	12552	3.429354794481	0
2	12558	3.429458794481	1
2	12566	3.429929794481	0
2	12572	3.430033794481	1
2	12591	3.430325345039	3
2	12602	3.430429345039	1
2	12624	3.430719895597	3
2	12635	3.430823895597	1
2	12661	3.431190895597	0
2	12672	3.431294895597	1
2	12680	3.431570895597	0
2	12686	3.431674895597	1
2	12716	3.432704895597	0
2	12722	3.432808895597	1
2	12740	3.434176895597	0
2	12753	3.434280895597	1
2	12777	3.435182109586	3
2	12783	3.435934109586	1
2	12793	3.435966109586	0
2	12801	3.436022109586	1
2	12839	3.438139660144	3
2	12846	3.438195660144	1
2	12876	3.439130210702	3
2	12884	3.439186210702	1
2	12890	3.439270210702	0
2	12903	3.439374210702	1
2	12918	3.439637210702	0
2	12924	3.439741210702	1
2	12945	3.440095210702	0
2	12953	3.440199210702	1
2	12966	3.440233266242	3
2	12973	3.440289266242	1
2	12981	3.440386266242	3
2	12996	3.441138266242	1
2	13004	3.441170266242	0
2	13012	3.441226266242	1
2	13019	3.441310266242	0
2	13025	3.441414266242	1
2	13045	3.441448321782	3
2	13051	3.441504321782	1
2	13057	3.441757321782	0
2	13064	3.441861321782	1
2	13083	3.4423558168	3
2	13095	3.4431078168	1
2	13103	3.4431398168	0
2	13111	3.4431958168	1
2	13121	3.44329487234	3
2	13132	3.44339887234	1
2	13154	3.443637422898	3
2	13165	3.443741422898	1
2	13191	3.444043422898	0
2	13197	3.444147422898	1
2	13223	3.445242422898	0
2	13229	3.445346422898	1
2	13238	3.445380478438	3
2	13245	3.445436478438	1
2	13250	3.445494478438	0
2	13256	3.445598478438	1
2	13269	3.445632533978	3
2	13276	3.445688533978	1
2	13284	3.445772533978	3
2	13295	3.445876533978	1
2	13316	3.446048533978	0
2	13322	3.446152533978	1
2	13335	3.446186589518	3
2	13342	3.446242589518	1
2	13354	3.446430589518	0
2	13365	3.446534589518	1
2	13373	3.446680589518	0
2	13379	3.446784589518	1
2	13387	3.447151589518	0
2	13401	3.447255589518	1
2	13412	3.447500645058	3
2	13423	3.447604645058	1
2	13445	3.447817195616	3
2	13453	3.448569195616	1
2	13461	3.448601195616	0
2	13469	3.448657195616	1
2	13492	3.450093195616	0
2	13498	3.450197195616	1
2	13524	3.451115746174	3
2	13538	3.451867746174	1
2	13546	3.451899746174	0
2	13554	3.451955746174	1
2	13568	3.452793746174	0
2	13574	3.452897746174	1
3	2	0.1	15
3	12563	3.429552794481	31
3	12583	3.430127794481	63
3	12677	3.431388895597	127
3	12691	3.431768895597	255
3	12728	3.432902895597	511
3	12759	3.434374895597	1023
3	12909	3.439468210702	15
3	12930	3.439835210702	31
3	12974	3.440289266242	15
3	13054	3.441508266242	31
3	13070	3.441955321782	63
3	13202	3.444241422898	127
3	13246	3.445436478438	15
3	13370	3.446628589518	31
3	13384	3.446878589518	63
3	13406	3.447349589518	127
3	13505	3.450291195616	255
4	5	0.1	1000
4	12	0.115071169097	1000
4	18	0.126149846675	1000
4	24	0.135596260355	1000
4	30	0.142208842195	1000
4	36	0.154666753803	1000
4	42	0.161572984166	1000
4	48	0.18825527723	1000
4	55	0.228034224589	1000
4	61	0.233837449848	1000
4	67	0.252664203259	1000
4	73	0.261696292619	1000
4	79	0.271769486854	1000
4	86	0.302948535884	1000
4	92	0.30383276015	1000
4	98	0.304926692463	1000
4	104	0.305171799524	1000
4	110	0.326621651485	1000
4	116	0.344691062589	1000
4	122	0.369174833684	1000
4	129	0.415317496114	1000
4	135	0.434580370799	1000
4	141	0.442007524315	1000
4	147	0.460205956003	1000
4	153	0.461716448916	1000
4	159	0.473973631408	1000
4	165	0.475830387574	1000
4	172	0.51056343331	1000
4	178	0.519417360811	1000
4	184	0.525844149454	1000
4	190	0.52953151368	1000
4	196	0.547390571589	1000
4	202	0.554699560667	1000
4	208	0.564783577134	1000
4	214	0.565011199964	1000
4	220	0.576547771233	1000
4	226	0.587911731359	1000
4	232	0.599426307087	1000
4	239	0.633961287342	1000
4	245	0.647702954798	1000
4	251	0.653049176739	1000
4	257	0.65994356562	1000
4	263	0.674296859213	1000
4	269	0.675042242699	1000
4	275	0.68822919231	1000
4	282	0.701556361658	1000
4	288	0.704390842131	1000
4	294	0.706047186392	1000
4	300	0.710594729963	1000
4	306	0.716019954686	1000
4	312	0.726153088208	1000
4	318	0.733080979938	1000
4	324	0.786534942092	1000
4	330	0.78782656339	1000
4	336	0.790638181615	1000
4	342	0.79274914416	1000
4	349	0.805454056741	1000
4	355	0.80895902314	1000
4	361	0.816494322112	1000
4	367	0.819857646214	1000
4	373	0.821935175688	1000
4	379	0.823338640606	1000
4	385	0.836155506972	1000
4	391	0.837940054203	1000
4	397	0.840566621361	1000
4	403	0.846086788854	1000
4	409	0.866730768747	1000
4	415	0.867956507325	1000
4	421	0.889794334356	1000
4	427	0.89100675166	1000
4	434	0.935995129175	1000
4	440	0.943583168332	1000
4	446	0.988726295746	1000
[...]
128	11699	3.34549918872	0
128	11717	3.346466739424	0
128	11717	3.346466739424	8.8e-05
128	11732	3.346554739424	0
128	11764	3.352971660028	0
128	11764	3.352971660028	8.8e-05
128	11781	3.353059660028	0
128	11836	3.35425171263	0
128	11836	3.35425171263	8.8e-05
128	11852	3.35433971263	0
128	11870	3.355333263334	0
128	11870	3.355333263334	8.8e-05
128	11886	3.355421263334	0
128	11908	3.357653071987	0
128	11908	3.357653071987	8.8e-05
128	11924	3.357741071987	0
128	11942	3.358643622691	0
128	11942	3.358643622691	8.8e-05
128	11957	3.358731622691	0
128	12012	3.378157481171	0
128	12012	3.378157481171	8.8e-05
128	12029	3.378245481171	0
128	12080	3.381142092694	0
128	12080	3.381142092694	8.8e-05
128	12096	3.381230092694	0
128	12114	3.382093643398	0
128	12114	3.382093643398	8.8e-05
128	12129	3.382181643398	0
128	12184	3.421770983529	0
128	12184	3.421770983529	8.8e-05
128	12200	3.421858983529	0
128	12221	3.422826534087	0
128	12221	3.422826534087	8.8e-05
128	12236	3.422914534087	0
128	12280	3.42740131983	0
128	12280	3.42740131983	8.8e-05
128	12341	3.42748931983	0
128	12576	3.43006754199	0
128	12576	3.43006754199	8.8e-05
128	12584	3.43015554199	0
128	12693	3.431825643106	0
128	12693	3.431825643106	8.8e-05
128	12700	3.431913643106	0
128	12730	3.432944643106	0
128	12730	3.432944643106	8.8e-05
128	12736	3.433032643106	0
128	12760	3.434973643106	0
128	12760	3.434973643106	8.8e-05
128	12765	3.435061643106	0
128	12782	3.435933857095	0
128	12782	3.435933857095	8.8e-05
128	12799	3.436021857095	0
128	12824	3.438105857095	0
128	12824	3.438105857095	8.8e-05
128	12841	3.438193857095	0
128	12862	3.439096407653	0
128	12862	3.439096407653	8.8e-05
128	12879	3.439184407653	0
128	12937	3.440034958211	0
128	12937	3.440034958211	8.8e-05
128	12950	3.440122958211	0
128	12995	3.441138013751	0
128	12995	3.441138013751	8.8e-05
128	13010	3.441226013751	0
128	13071	3.442192013751	0
128	13071	3.442192013751	8.8e-05
128	13076	3.442280013751	0
128	13094	3.443107564309	0
128	13094	3.443107564309	8.8e-05
128	13109	3.443195564309	0
128	13209	3.444717170407	0
128	13209	3.444717170407	8.8e-05
128	13218	3.444805170407	0
128	13392	3.447156337027	0
128	13392	3.447156337027	8.8e-05
128	13398	3.447244337027	0
128	13452	3.448568943125	0
128	13452	3.448568943125	8.8e-05
128	13467	3.448656943125	0
128	13511	3.450753943125	0
128	13511	3.450753943125	8.8e-05
128	13517	3.450841943125	0
128	13537	3.451867493683	0
128	13537	3.451867493683	8.8e-05
128	13552	3.451955493683	0
129	8260	3.10253264371	14
129	8274	3.10286864371	78
129	8331	3.104025200416	14
129	8432	3.107110757122	14
129	8520	3.11540122584	14
129	8993	3.160271007576	14
129	9332	3.209470213234	14
129	9445	3.232819628241	14
129	9523	3.245052370498	14
129	9597	3.24696692135	14
129	9779	3.258639502514	14
129	10302	3.273341050526	14
129	10380	3.275346601378	14
129	10454	3.27728715223	14
129	10485	3.278329703082	14
129	10599	3.282955677256	14
129	10760	3.290270387426	14
129	11075	3.30852089817	14
129	11404	3.325610470358	14
129	11560	3.336998306519	14
129	11703	3.345500739424	14
129	11856	3.354341263334	14
129	11928	3.357742622691	14
129	12100	3.381231643398	14
129	12204	3.421860534087	14
129	12420	3.42831143091	86
129	12515	3.42913054199	86
129	12596	3.430429092548	86
129	12629	3.430823643106	86
129	12845	3.438195407653	14
129	12883	3.439185958211	14
129	13126	3.443398619849	86
129	13159	3.443741170407	86
129	13289	3.445876281487	86
129	13417	3.447604392567	86
130	8262	3.10253288881	14
130	8284	3.10286888881	78
130	8333	3.104025445516	14
130	8434	3.107111002222	14
130	8522	3.11540147094	14
130	8995	3.160271252676	14
130	9334	3.209470462669	14
130	9447	3.232819877676	14
130	9525	3.245052619933	14
130	9599	3.246967170785	14
130	9781	3.258639751949	14
130	10304	3.273341299961	14
130	10382	3.275346850813	14
130	10456	3.277287401665	14
130	10487	3.278329952517	14
130	10601	3.282955926691	14
130	10762	3.290270636861	14
130	11077	3.308521149119	14
130	11406	3.325610721307	14
130	11562	3.336998557468	14
130	11705	3.345500990373	14
130	11858	3.354341514283	14
130	11930	3.35774287364	14
130	12102	3.381231894347	14
130	12206	3.421860786578	14
130	12427	3.428311683401	86
130	12522	3.429130794481	86
130	12603	3.430429345039	86
130	12636	3.430823895597	86
130	12847	3.438195660144	14
130	12885	3.439186210702	14
130	12909	3.439468210702	86
130	13133	3.44339887234	86
130	13166	3.443741422898	86
130	13296	3.445876533978	86
130	13424	3.447604645058	86
131	8262	3.10253288881	14
131	8284	3.10286888881	78
131	8333	3.104025445516	14
131	8434	3.107111002222	14
131	8522	3.11540147094	14
131	8995	3.160271252676	14
131	9334	3.209470462669	14
131	9447	3.232819877676	14
131	9525	3.245052619933	14
131	9599	3.246967170785	14
131	9781	3.258639751949	14
131	10304	3.273341299961	14
131	10382	3.275346850813	14
131	10456	3.277287401665	14
131	10487	3.278329952517	14
131	10601	3.282955926691	14
131	10762	3.290270636861	14
131	11077	3.308521149119	14
131	11406	3.325610721307	14
131	11562	3.336998557468	14
131	11705	3.345500990373	14
131	11858	3.354341514283	14
131	11930	3.35774287364	14
131	12102	3.381231894347	14
131	12206	3.421860786578	14
131	12427	3.428311683401	86
131	12522	3.429130794481	86
131	12603	3.430429345039	86
131	12636	3.430823895597	86
131	12847	3.438195660144	14
131	12885	3.439186210702	14
131	13133	3.44339887234	86
131	13166	3.443741422898	86
131	13296	3.445876533978	86
131	13424	3.447604645058	86
132	8262	3.10253288881	14
132	8284	3.10286888881	78
132	8333	3.104025445516	14
132	8434	3.107111002222	14
132	8522	3.11540147094	14
132	8995	3.160271252676	14
132	9334	3.209470462669	14
132	9447	3.232819877676	14
132	9525	3.245052619933	14
132	9599	3.246967170785	14
132	9781	3.258639751949	14
132	10304	3.273341299961	14
132	10382	3.275346850813	14
132	10456	3.277287401665	14
132	10487	3.278329952517	14
132	10601	3.282955926691	14
132	10762	3.290270636861	14
132	11077	3.308521149119	14
132	11406	3.325610721307	14
132	11562	3.336998557468	14
132	11705	3.345500990373	14
132	11858	3.354341514283	14
132	11930	3.35774287364	14
132	12102	3.381231894347	14
132	12206	3.421860786578	14
132	12427	3.428311683401	86
132	12522	3.429130794481	86
132	12603	3.430429345039	86
132	12636	3.430823895597	86
132	12847	3.438195660144	14
132	12885	3.439186210702	14
132	12909	3.439468210702	86
132	13052	3.441504321782	14
132	13133	3.44339887234	86
132	13166	3.443741422898	86
132	13296	3.445876533978	86
132	13424	3.447604645058	86
133	8262	3.10253288881	14
133	8284	3.10286888881	78
133	8333	3.104025445516	14
133	8434	3.107111002222	14
133	8522	3.11540147094	14
133	8995	3.160271252676	14
133	9334	3.209470462669	14
133	9447	3.232819877676	14
133	9525	3.245052619933	14
133	9599	3.246967170785	14
133	9781	3.258639751949	14
133	10304	3.273341299961	14
133	10382	3.275346850813	14
133	10456	3.277287401665	14
133	10487	3.278329952517	14
133	10601	3.282955926691	14
133	10762	3.290270636861	14
133	11077	3.308521149119	14
133	11406	3.325610721307	14
133	11562	3.336998557468	14
133	11705	3.345500990373	14
133	11858	3.354341514283	14
133	11930	3.35774287364	14
133	12102	3.381231894347	14
133	12206	3.421860786578	14
133	12427	3.428311683401	86
133	12522	3.429130794481	86
133	12603	3.430429345039	86
133	12636	3.430823895597	86
133	12847	3.438195660144	14
133	12885	3.439186210702	14
133	13133	3.44339887234	86
133	13166	3.443741422898	86
133	13296	3.445876533978	86
133	13424	3.447604645058	86
134	8277	3.10286864371	28
135	8277	3.10286864371	1
136	8345	3.104848200416	1058
136	8446	3.107959757122	1058
136	8535	3.11630222584	1058
136	8582	3.124854028912	1058
136	8634	3.125311075818	14
136	8673	3.139231845566	1058
136	8725	3.139636892472	14
136	8750	3.146025400186	1058
136	8802	3.146508447092	14
136	8821	3.147522917293	1058
136	8873	3.147953964199	14
136	8905	3.158213162916	1058
136	8957	3.158748209822	14
136	9007	3.161107007576	1058
136	9067	3.180831538286	1058
136	9119	3.181236585192	14
136	9173	3.204602998912	1058
136	9225	3.204969048634	14
136	9244	3.206080324371	1058
136	9296	3.206563374093	14
136	9352	3.210410213234	1058
136	9459	3.233681628241	1058
136	9542	3.245862370498	1058
136	9611	3.24794592135	1058
136	9660	3.253002013607	1058
136	9712	3.253433063329	14
136	9798	3.259501502514	1058
136	9837	3.260440552236	1058
136	9892	3.260832601958	14
136	9906	3.261681601958	1058
136	9958	3.26203465168	14
136	9972	3.26297465168	1058
136	10027	3.263353701402	14
136	10042	3.264293701402	1058
136	10094	3.264763751124	14
136	10132	3.27044440023	1058
136	10187	3.270901449952	14
136	10208	3.271763449952	1058
136	10263	3.272285499674	14
136	10322	3.274190050526	1058
136	10400	3.276273601378	1058
136	10505	3.279191703082	1058
136	10537	3.280156752804	1058
136	10615	3.283869677256	1058
136	10668	3.288347451843	1058
136	10720	3.288700501565	14
136	10774	3.291210387426	1058
136	10823	3.295155869279	1058
136	10875	3.295508919001	14
136	10894	3.296461919001	1058
136	10946	3.296892968723	14
136	10960	3.297754968723	1058
136	11012	3.298225018445	14
136	11094	3.30934389817	1058
136	11126	3.310256950772	1058
136	11178	3.310753003374	14
136	11203	3.315597992781	1058
136	11255	3.315977045383	14
136	11282	3.319225930438	1058
136	11336	3.31964398304	14
136	11421	3.326420470358	1058
136	11464	3.32814355829	1058
136	11516	3.328483610892	14
136	11574	3.337951306519	1058
136	11615	3.343402878318	1058
136	11667	3.34385993092	14
136	11717	3.346466739424	1058
136	11764	3.352971660028	1058
136	11817	3.35341571263	14
136	11870	3.355333263334	1058
136	11942	3.358643622691	1058
136	12012	3.378157481171	1058
136	12064	3.378666533773	14
136	12114	3.382093643398	1058
136	12221	3.422826534087	1058
136	12280	3.42740131983	78
136	12375	3.42781937537	14
136	12406	3.42813643091	14
136	12470	3.42866448645	14
136	12501	3.42891654199	14
136	12782	3.435933857095	1058
136	12972	3.440289013751	14
136	12995	3.441138013751	1058
136	13094	3.443107564309	1058
136	13244	3.445436225947	14
136	13275	3.445688281487	14
136	13341	3.446242337027	14
136	13452	3.448568943125	1058
136	13537	3.451867493683	1058
137	8345	3.104848200416	1058
137	8446	3.107959757122	1058
137	8535	3.11630222584	1058
137	8582	3.124854028912	1058
137	8634	3.125311075818	14
137	8673	3.139231845566	1058
137	8725	3.139636892472	14
137	8750	3.146025400186	1058
137	8802	3.146508447092	14
137	8821	3.147522917293	1058
137	8873	3.147953964199	14
137	8905	3.158213162916	1058
137	8957	3.158748209822	14
137	9007	3.161107007576	1058
137	9067	3.180831538286	1058
137	9119	3.181236585192	14
137	9173	3.204602998912	1058
137	9225	3.204969048634	14
137	9244	3.206080324371	1058
137	9296	3.206563374093	14
137	9352	3.210410213234	1058
137	9459	3.233681628241	1058
137	9542	3.245862370498	1058
137	9611	3.24794592135	1058
137	9660	3.253002013607	1058
137	9712	3.253433063329	14
137	9798	3.259501502514	1058
137	9837	3.260440552236	1058
137	9892	3.260832601958	14
137	9906	3.261681601958	1058
137	9958	3.26203465168	14
137	9972	3.26297465168	1058
137	10027	3.263353701402	14
137	10042	3.264293701402	1058
137	10094	3.264763751124	14
137	10132	3.27044440023	1058
137	10187	3.270901449952	14
137	10208	3.271763449952	1058
137	10263	3.272285499674	14
137	10322	3.274190050526	1058
137	10400	3.276273601378	1058
137	10505	3.279191703082	1058
137	10537	3.280156752804	1058
137	10615	3.283869677256	1058
137	10668	3.288347451843	1058
137	10720	3.288700501565	14
137	10774	3.291210387426	1058
137	10823	3.295155869279	1058
137	10875	3.295508919001	14
137	10894	3.296461919001	1058
137	10946	3.296892968723	14
137	10960	3.297754968723	1058
137	11012	3.298225018445	14
137	11094	3.30934389817	1058
137	11126	3.310256950772	1058
137	11178	3.310753003374	14
137	11203	3.315597992781	1058
137	11255	3.315977045383	14
137	11282	3.319225930438	1058
137	11336	3.31964398304	14
137	11421	3.326420470358	1058
137	11464	3.32814355829	1058
137	11516	3.328483610892	14
137	11574	3.337951306519	1058
137	11615	3.343402878318	1058
137	11667	3.34385993092	14
137	11717	3.346466739424	1058
137	11764	3.352971660028	1058
137	11817	3.35341571263	14
137	11870	3.355333263334	1058
137	11942	3.358643622691	1058
137	12012	3.378157481171	1058
137	12064	3.378666533773	14
137	12114	3.382093643398	1058
137	12221	3.422826534087	1058
137	12280	3.42740131983	78
137	12375	3.42781937537	14
137	12406	3.42813643091	14
137	12470	3.42866448645	14
137	12501	3.42891654199	14
137	12782	3.435933857095	1058
137	12972	3.440289013751	14
137	12995	3.441138013751	1058
137	13094	3.443107564309	1058
137	13244	3.445436225947	14
137	13275	3.445688281487	14
137	13341	3.446242337027	14
137	13452	3.448568943125	1058
137	13537	3.451867493683	1058
138	8345	3.104848200416	1058
138	8446	3.107959757122	1058
138	8535	3.11630222584	1058
138	8582	3.124854028912	1058
138	8634	3.125311075818	14
138	8673	3.139231845566	1058
138	8725	3.139636892472	14
138	8750	3.146025400186	1058
138	8802	3.146508447092	14
138	8821	3.147522917293	1058
138	8873	3.147953964199	14
138	8905	3.158213162916	1058
138	8957	3.158748209822	14
138	9007	3.161107007576	1058
138	9067	3.180831538286	1058
138	9119	3.181236585192	14
138	9173	3.204602998912	1058
138	9225	3.204969048634	14
138	9244	3.206080324371	1058
138	9296	3.206563374093	14
138	9352	3.210410213234	1058
138	9459	3.233681628241	1058
138	9542	3.245862370498	1058
138	9611	3.24794592135	1058
138	9660	3.253002013607	1058
138	9712	3.253433063329	14
138	9798	3.259501502514	1058
138	9837	3.260440552236	1058
138	9892	3.260832601958	14
138	9906	3.261681601958	1058
138	9958	3.26203465168	14
138	9972	3.26297465168	1058
138	10027	3.263353701402	14
138	10042	3.264293701402	1058
138	10094	3.264763751124	14
138	10132	3.27044440023	1058
138	10187	3.270901449952	14
138	10208	3.271763449952	1058
138	10263	3.272285499674	14
138	10322	3.274190050526	1058
138	10400	3.276273601378	1058
138	10505	3.279191703082	1058
138	10537	3.280156752804	1058
138	10615	3.283869677256	1058
138	10668	3.288347451843	1058
138	10720	3.288700501565	14
138	10774	3.291210387426	1058
138	10823	3.295155869279	1058
138	10875	3.295508919001	14
138	10894	3.296461919001	1058
138	10946	3.296892968723	14
138	10960	3.297754968723	1058
138	11012	3.298225018445	14
138	11094	3.30934389817	1058
138	11126	3.310256950772	1058
138	11178	3.310753003374	14
138	11203	3.315597992781	1058
138	11255	3.315977045383	14
138	11282	3.319225930438	1058
138	11336	3.31964398304	14
138	11421	3.326420470358	1058
138	11464	3.32814355829	1058
138	11516	3.328483610892	14
138	11574	3.337951306519	1058
138	11615	3.343402878318	1058
138	11667	3.34385993092	14
138	11717	3.346466739424	1058
138	11764	3.352971660028	1058
138	11817	3.35341571263	14
138	11870	3.355333263334	1058
138	11942	3.358643622691	1058
138	12012	3.378157481171	1058
138	12064	3.378666533773	14
138	12114	3.382093643398	1058
138	12221	3.422826534087	1058
138	12280	3.42740131983	78
138	12375	3.42781937537	14
138	12406	3.42813643091	14
138	12470	3.42866448645	14
138	12501	3.42891654199	14
138	12782	3.435933857095	1058
138	12972	3.440289013751	14
138	12995	3.441138013751	1058
138	13094	3.443107564309	1058
138	13244	3.445436225947	14
138	13275	3.445688281487	14
138	13341	3.446242337027	14
138	13452	3.448568943125	1058
138	13537	3.451867493683	1058
139	8345	3.104848200416	1058
139	8446	3.107959757122	1058
139	8535	3.11630222584	1058
139	8582	3.124854028912	1058
139	8634	3.125311075818	14
139	8673	3.139231845566	1058
139	8725	3.139636892472	14
139	8750	3.146025400186	1058
139	8802	3.146508447092	14
139	8821	3.147522917293	1058
139	8873	3.147953964199	14
139	8905	3.158213162916	1058
139	8957	3.158748209822	14
139	9007	3.161107007576	1058
139	9067	3.180831538286	1058
139	9119	3.181236585192	14
139	9173	3.204602998912	1058
139	9225	3.204969048634	14
139	9244	3.206080324371	1058
139	9296	3.206563374093	14
139	9352	3.210410213234	1058
139	9459	3.233681628241	1058
139	9542	3.245862370498	1058
139	9611	3.24794592135	1058
139	9660	3.253002013607	1058
139	9712	3.253433063329	14
139	9798	3.259501502514	1058
139	9837	3.260440552236	1058
139	9892	3.260832601958	14
139	9906	3.261681601958	1058
139	9958	3.26203465168	14
139	9972	3.26297465168	1058
139	10027	3.263353701402	14
139	10042	3.264293701402	1058
139	10094	3.264763751124	14
139	10132	3.27044440023	1058
139	10187	3.270901449952	14
139	10208	3.271763449952	1058
139	10263	3.272285499674	14
139	10322	3.274190050526	1058
139	10400	3.276273601378	1058
139	10505	3.279191703082	1058
139	10537	3.280156752804	1058
139	10615	3.283869677256	1058
139	10668	3.288347451843	1058
139	10720	3.288700501565	14
139	10774	3.291210387426	1058
139	10823	3.295155869279	1058
139	10875	3.295508919001	14
139	10894	3.296461919001	1058
139	10946	3.296892968723	14
139	10960	3.297754968723	1058
139	11012	3.298225018445	14
139	11094	3.30934389817	1058
139	11126	3.310256950772	1058
139	11178	3.310753003374	14
139	11203	3.315597992781	1058
139	11255	3.315977045383	14
139	11282	3.319225930438	1058
139	11336	3.31964398304	14
139	11421	3.326420470358	1058
139	11464	3.32814355829	1058
139	11516	3.328483610892	14
139	11574	3.337951306519	1058
139	11615	3.343402878318	1058
139	11667	3.34385993092	14
139	11717	3.346466739424	1058
139	11764	3.352971660028	1058
139	11817	3.35341571263	14
139	11870	3.355333263334	1058
139	11942	3.358643622691	1058
139	12012	3.378157481171	1058
139	12064	3.378666533773	14
139	12114	3.382093643398	1058
139	12221	3.422826534087	1058
139	12280	3.42740131983	78
139	12375	3.42781937537	14
139	12406	3.42813643091	14
139	12470	3.42866448645	14
139	12501	3.42891654199	14
139	12782	3.435933857095	1058
139	12972	3.440289013751	14
139	12995	3.441138013751	1058
139	13094	3.443107564309	1058
139	13244	3.445436225947	14
139	13275	3.445688281487	14
139	13341	3.446242337027	14
139	13452	3.448568943125	1058
139	13537	3.451867493683	1058
140	8387	3.105164468969	82
140	12579	3.430068317269	1058
140	12696	3.431826418385	1058
140	12733	3.432945418385	1058
140	12755	3.434281923367	86
140	12905	3.439375238472	86
140	12926	3.439742238472	86
140	13066	3.441862349552	86
140	13212	3.444717945686	1058
140	13231	3.445347450668	86
140	13395	3.447157112306	1058
140	13514	3.450754718404	1058
141	8387	3.105164468969	82
141	12579	3.430068317269	1058
141	12696	3.431826418385	1058
141	12733	3.432945418385	1058
141	12755	3.434281923367	86
141	12905	3.439375238472	86
141	12926	3.439742238472	86
141	13066	3.441862349552	86
141	13212	3.444717945686	1058
141	13395	3.447157112306	1058
141	13514	3.450754718404	1058
142	8412	3.107021200416	1058
142	12693	3.431825643106	1058
142	12730	3.432944643106	1058
142	12760	3.434973643106	1058
142	12824	3.438105857095	1058
142	13071	3.442192013751	1058
142	13209	3.444717170407	1058
142	13392	3.447156337027	1058
142	13511	3.450753943125	1058
143	8415	3.107021978769	1058
143	12827	3.438106632374	1058
143	12955	3.440200238472	86
143	13231	3.445347450668	86
143	13576	3.452898773944	86
144	12571	3.430033794481	86
144	12671	3.431294895597	86
144	12685	3.431674895597	86
144	12721	3.432808895597	86
144	12752	3.434280895597	86
144	12902	3.439374210702	86
144	12952	3.440199210702	86
144	13063	3.441861321782	86
144	13196	3.444147422898	86
144	13228	3.445346422898	86
144	13378	3.446784589518	86
144	13400	3.447255589518	86
144	13497	3.450197195616	86
144	13573	3.452897746174	86
145	12909	3.439468210702	86
146	12909	3.439468210702	86
147	13052	3.441504321782	14
148	13231	3.445347450668	86
149	13231	3.445347450668	86
150	13231	3.445347450668	86
vector 151 RoutingScenario.node[0].app[0] throughput:vector ETV
attr source throughput(packetReceived)
attr title "throughput, vector"
attr unit bps
151	13585	0.1	0
151	13585	0.2	0
151	13585	0.3	0
151	13585	0.4	0
151	13585	0.5	0
151	13585	0.6	0
151	13585	0.7	0
151	13585	0.8	0
151	13585	0.9	0
151	13585	1	0
151	13585	1.1	0
151	13585	1.2	0
151	13585	1.3	0
151	13585	1.4	0
151	13585	1.5	0
151	13585	1.6	0
151	13585	1.7	0
151	13585	1.8	0
151	13585	1.9	0
151	13585	2	0
151	13585	2.1	0
151	13585	2.2	0
151	13585	2.3	0
151	13585	2.4	0
151	13585	2.5	0
151	13585	2.6	0
151	13585	2.7	0
151	13585	2.8	0
151	13585	2.9	0
151	13585	3	0
151	13585	3.1	0
151	13585	3.2	0
151	13585	3.3	0
151	13585	3.4	0
151	13585	3.452930856437	0
